# generated using pymatgen
data_Li2Ca
_symmetry_space_group_name_H-M   'P 1'
_cell_length_a   6.19327088
_cell_length_b   6.19326877
_cell_length_c   10.18371546
_cell_angle_alpha   90.00000000
_cell_angle_beta   90.00000000
_cell_angle_gamma   120.00000574
_symmetry_Int_Tables_number   1
_chemical_formula_structural   Li2Ca
_chemical_formula_sum   'Li8 Ca4'
_cell_volume   338.28042363
_cell_formula_units_Z   4
loop_
 _symmetry_equiv_pos_site_id
 _symmetry_equiv_pos_as_xyz
  1  'x, y, z'
loop_
 _atom_site_type_symbol
 _atom_site_label
 _atom_site_symmetry_multiplicity
 _atom_site_fract_x
 _atom_site_fract_y
 _atom_site_fract_z
 _atom_site_occupancy
  Li  Li0  1  0.33548865  0.16774432  0.75000000  1
  Li  Li1  1  0.16774432  0.83225568  0.25000000  1
  Li  Li2  1  0.16774432  0.33548865  0.25000000  1
  Li  Li3  1  0.83225568  0.66451135  0.75000000  1
  Li  Li4  1  0.83225568  0.16774432  0.75000000  1
  Li  Li5  1  0.00000000  0.00000000  0.00000000  1
  Li  Li6  1  0.66451135  0.83225568  0.25000000  1
  Li  Li7  1  0.00000000  0.00000000  0.50000000  1
  Ca  Ca0  1  0.66666700  0.33333300  0.06218969  1
  Ca  Ca1  1  0.33333300  0.66666700  0.56218969  1
  Ca  Ca2  1  0.33333300  0.66666700  0.93781031  1
  Ca  Ca3  1  0.66666700  0.33333300  0.43781031  1
loop_
_geom_bond_atom_site_label_1
_geom_bond_atom_site_label_2
_geom_bond_distance
_geom_bond_site_symmetry_2
Li0 Li3 3.076612 1_555
Li0 Li4 3.076613 1_555
Li0 Li3 3.116657 1_445
Li0 Li4 3.116658 1_455
Li0 Li7 3.117628 1_555
Li0 Li5 3.117628 1_556
Li1 Li2 3.076612 1_555
Li1 Li6 3.076613 1_555
Li1 Li2 3.116657 1_565
Li1 Li6 3.116658 1_455
Li1 Li5 3.117628 1_565
Li1 Li7 3.117628 1_565
Li2 Li6 3.076612 1_555
Li2 Li6 3.116657 1_445
Li2 Li7 3.117628 1_555
Li2 Li5 3.117628 1_555
Li3 Li4 3.076612 1_555
Li3 Li4 3.116657 1_565
Li3 Li7 3.117628 1_665
Li3 Li5 3.117628 1_666
Li4 Li7 3.117628 1_655
Li4 Li5 3.117628 1_656
Li5 Li6 3.117628 1_445
Li6 Li7 3.117628 1_665
Ca0 Li5 3.631336 1_655
Ca0 Li5 3.631341 1_665
Ca0 Li5 3.631342 1_555
Ca0 Li6 3.639687 1_545
Ca0 Li2 3.639688 1_655
Ca0 Li1 3.639690 1_545
Ca0 Li1 3.639690 1_655
Ca0 Li6 3.639693 1_555
Ca0 Li2 3.639693 1_555
Ca0 Li4 3.641813 1_554
Ca0 Li3 3.641816 1_554
Ca0 Li0 3.641816 1_554
Ca0 Ca2 3.793400 1_544
Ca0 Ca2 3.793402 1_654
Ca0 Ca2 3.793411 1_554
Ca0 Ca3 3.825214 1_555
Ca1 Li7 3.631336 1_565
Ca1 Li7 3.631341 1_555
Ca1 Li7 3.631342 1_665
Ca1 Li0 3.639687 1_565
Ca1 Li3 3.639688 1_455
Ca1 Li4 3.639690 1_565
Ca1 Li4 3.639690 1_455
Ca1 Li0 3.639693 1_555
Ca1 Li3 3.639693 1_555
Ca1 Li1 3.641813 1_555
Ca1 Li2 3.641816 1_555
Ca1 Li6 3.641816 1_555
Ca1 Ca3 3.793400 1_565
Ca1 Ca3 3.793402 1_455
Ca1 Ca3 3.793411 1_555
Ca1 Ca2 3.825214 1_555
Ca2 Li5 3.631336 1_566
Ca2 Li5 3.631341 1_556
Ca2 Li5 3.631342 1_666
Ca2 Li0 3.639687 1_565
Ca2 Li3 3.639688 1_455
Ca2 Li4 3.639690 1_565
Ca2 Li4 3.639690 1_455
Ca2 Li0 3.639693 1_555
Ca2 Li3 3.639693 1_555
Ca2 Li1 3.641813 1_556
Ca2 Li2 3.641816 1_556
Ca2 Li6 3.641816 1_556
Ca3 Li7 3.631336 1_655
Ca3 Li7 3.631341 1_665
Ca3 Li7 3.631342 1_555
Ca3 Li6 3.639687 1_545
Ca3 Li2 3.639688 1_655
Ca3 Li1 3.639690 1_545
Ca3 Li1 3.639690 1_655
Ca3 Li6 3.639693 1_555
Ca3 Li2 3.639693 1_555
Ca3 Li4 3.641813 1_555
Ca3 Li3 3.641816 1_555
Ca3 Li0 3.641816 1_555
