# generated using pymatgen
data_Tl3Ga9S13O2
_symmetry_space_group_name_H-M   'P 1'
_cell_length_a   9.75931413
_cell_length_b   9.75931413
_cell_length_c   7.50932400
_cell_angle_alpha   90.00000000
_cell_angle_beta   90.00000000
_cell_angle_gamma   120.00000090
_symmetry_Int_Tables_number   1
_chemical_formula_structural   Tl3Ga9S13O2
_chemical_formula_sum   'Tl3 Ga9 S13 O2'
_cell_volume   619.39838016
_cell_formula_units_Z   1
loop_
 _symmetry_equiv_pos_site_id
 _symmetry_equiv_pos_as_xyz
  1  'x, y, z'
loop_
 _atom_site_type_symbol
 _atom_site_label
 _atom_site_symmetry_multiplicity
 _atom_site_fract_x
 _atom_site_fract_y
 _atom_site_fract_z
 _atom_site_occupancy
  Tl  Tl0  1  0.33333300  0.66666700  0.50000000  1
  Tl  Tl1  1  0.00000000  0.00000000  0.00000000  1
  Tl  Tl2  1  0.00000000  0.00000000  0.50000000  1
  Ga  Ga0  1  0.80467500  0.55795100  0.26446300  1
  Ga  Ga1  1  0.07166200  0.45539100  0.00000000  1
  Ga  Ga2  1  0.80467500  0.55795100  0.73553700  1
  Ga  Ga3  1  0.75327600  0.19532500  0.73553700  1
  Ga  Ga4  1  0.54460900  0.61627100  0.00000000  1
  Ga  Ga5  1  0.44204900  0.24672400  0.26446300  1
  Ga  Ga6  1  0.44204900  0.24672400  0.73553700  1
  Ga  Ga7  1  0.38372900  0.92833800  0.00000000  1
  Ga  Ga8  1  0.75327600  0.19532500  0.26446300  1
  S  S0  1  0.68389500  0.70445900  0.25461500  1
  S  S1  1  0.35997000  0.33250800  0.50000000  1
  S  S2  1  0.95600200  0.61575100  0.00000000  1
  S  S3  1  0.97253800  0.64003000  0.50000000  1
  S  S4  1  0.02056300  0.31610500  0.25461500  1
  S  S5  1  0.38424900  0.34025100  0.00000000  1
  S  S6  1  0.66749200  0.02746200  0.50000000  1
  S  S7  1  0.68389500  0.70445900  0.74538500  1
  S  S8  1  0.02056300  0.31610500  0.74538500  1
  S  S9  1  0.29554100  0.97943700  0.25461500  1
  S  S10  1  0.65974900  0.04399800  0.00000000  1
  S  S11  1  0.29554100  0.97943700  0.74538500  1
  S  S12  1  0.33333300  0.66666700  0.00000000  1
  O  O0  1  0.66666700  0.33333300  0.73671200  1
  O  O1  1  0.66666700  0.33333300  0.26328800  1
loop_
_geom_bond_atom_site_label_1
_geom_bond_atom_site_label_2
_geom_bond_distance
_geom_bond_site_symmetry_2
Tl1 Tl2 3.754662 1_554
Tl1 Tl2 3.754662 1_555
Ga0 O1 1.914945 1_555
Ga0 S0 2.263762 1_555
Ga0 S3 2.267499 1_555
Ga0 S2 2.368576 1_555
Ga1 S4 2.252619 1_555
Ga1 S8 2.252619 1_554
Ga1 S2 2.343045 1_455
Ga1 S12 2.346795 1_555
Ga2 O0 1.914945 1_555
Ga2 S7 2.263762 1_555
Ga2 S3 2.267499 1_555
Ga2 S2 2.368576 1_556
Ga3 O0 1.914938 1_555
Ga3 S8 2.263754 1_655
Ga3 S6 2.267499 1_555
Ga3 S10 2.368576 1_556
Ga4 S0 2.252619 1_555
Ga4 S7 2.252619 1_554
Ga4 S5 2.343044 1_555
Ga4 S12 2.346801 1_555
Ga5 O1 1.914947 1_555
Ga5 S9 2.263754 1_545
Ga5 S1 2.267499 1_555
Ga5 S5 2.368576 1_555
Ga6 O0 1.914947 1_555
Ga6 S11 2.263754 1_545
Ga6 S1 2.267499 1_555
Ga6 S5 2.368576 1_556
Ga7 S9 2.252623 1_555
Ga7 S11 2.252623 1_554
Ga7 S10 2.343045 1_565
Ga7 S12 2.346791 1_555
Ga8 O1 1.914938 1_555
Ga8 S4 2.263754 1_655
Ga8 S6 2.267499 1_555
Ga8 S10 2.368576 1_555
S0 Tl2 3.511927 1_665
S0 Tl1 3.548785 1_665
S0 Tl0 3.738257 1_555
S1 Tl2 3.387017 1_555
S1 Tl0 3.398607 1_555
S2 Tl1 3.554815 1_665
S3 Tl2 3.387017 1_665
S3 Tl0 3.398597 1_655
S4 Tl2 3.511931 1_555
S4 Tl1 3.548788 1_555
S4 Tl0 3.738257 1_555
S5 Tl1 3.554815 1_555
S6 Tl2 3.387017 1_655
S6 Tl0 3.398601 1_545
S7 Tl2 3.511927 1_665
S7 Tl1 3.548785 1_666
S7 Tl0 3.738257 1_555
S8 Tl2 3.511931 1_555
S8 Tl1 3.548788 1_556
S8 Tl0 3.738257 1_555
S9 Tl2 3.511923 1_565
S9 Tl1 3.548780 1_565
S9 Tl0 3.738257 1_555
S10 Tl1 3.554815 1_655
S11 Tl2 3.511923 1_565
S11 Tl1 3.548780 1_566
S11 Tl0 3.738257 1_555
S12 Tl0 3.754662 1_554
S12 Tl0 3.754662 1_555
