# generated using pymatgen
data_Zr2H12(N2O7)5
_symmetry_space_group_name_H-M   'P 1'
_cell_length_a   10.54590333
_cell_length_b   10.54590333
_cell_length_c   15.00515800
_cell_angle_alpha   90.00000000
_cell_angle_beta   90.00000000
_cell_angle_gamma   119.99999582
_symmetry_Int_Tables_number   1
_chemical_formula_structural   Zr2H12(N2O7)5
_chemical_formula_sum   'Zr4 H24 N20 O70'
_cell_volume   1445.23607993
_cell_formula_units_Z   2
loop_
 _symmetry_equiv_pos_site_id
 _symmetry_equiv_pos_as_xyz
  1  'x, y, z'
loop_
 _atom_site_type_symbol
 _atom_site_label
 _atom_site_symmetry_multiplicity
 _atom_site_fract_x
 _atom_site_fract_y
 _atom_site_fract_z
 _atom_site_occupancy
  Zr  Zr0  1  0.33333300  0.66666700  0.03710800  1
  Zr  Zr1  1  0.33333300  0.66666700  0.53710800  1
  Zr  Zr2  1  0.66666700  0.33333300  0.46289200  1
  Zr  Zr3  1  0.66666700  0.33333300  0.96289200  1
  H  H0  1  0.45688500  0.56688100  0.67595100  1
  H  H1  1  0.81656500  0.56002200  0.33332500  1
  H  H2  1  0.89000400  0.43311900  0.82404900  1
  H  H3  1  0.18343500  0.43997800  0.66667500  1
  H  H4  1  0.43997800  0.25654300  0.33332500  1
  H  H5  1  0.25654300  0.81656500  0.66667500  1
  H  H6  1  0.74345700  0.18343500  0.33332500  1
  H  H7  1  0.56002200  0.81656500  0.16667500  1
  H  H8  1  0.45688500  0.89000400  0.17595100  1
  H  H9  1  0.54311500  0.10999600  0.82404900  1
  H  H10  1  0.25654300  0.43997800  0.16667500  1
  H  H11  1  0.56688100  0.45688500  0.82404900  1
  H  H12  1  0.43997800  0.18343500  0.83332500  1
  H  H13  1  0.43311900  0.54311500  0.17595100  1
  H  H14  1  0.18343500  0.74345700  0.16667500  1
  H  H15  1  0.56688100  0.10999600  0.32404900  1
  H  H16  1  0.56002200  0.74345700  0.66667500  1
  H  H17  1  0.43311900  0.89000400  0.67595100  1
  H  H18  1  0.10999600  0.54311500  0.67595100  1
  H  H19  1  0.54311500  0.43311900  0.32404900  1
  H  H20  1  0.89000400  0.45688500  0.32404900  1
  H  H21  1  0.81656500  0.25654300  0.83332500  1
  H  H22  1  0.10999600  0.56688100  0.17595100  1
  H  H23  1  0.74345700  0.56002200  0.83332500  1
  N  N0  1  0.68950800  0.68950800  0.25000000  1
  N  N1  1  0.00000000  0.31049200  0.25000000  1
  N  N2  1  0.22977600  0.40241700  0.45347200  1
  N  N3  1  0.77022400  0.17264200  0.04652800  1
  N  N4  1  0.17264200  0.40241700  0.95347200  1
  N  N5  1  0.40241700  0.17264200  0.54652800  1
  N  N6  1  0.31049200  0.00000000  0.25000000  1
  N  N7  1  0.17264200  0.77022400  0.45347200  1
  N  N8  1  0.59758300  0.77022400  0.95347200  1
  N  N9  1  0.77022400  0.59758300  0.54652800  1
  N  N10  1  0.00000000  0.00000000  0.75000000  1
  N  N11  1  0.40241700  0.22977600  0.04652800  1
  N  N12  1  0.22977600  0.82735800  0.95347200  1
  N  N13  1  0.00000000  0.68950800  0.75000000  1
  N  N14  1  0.31049200  0.31049200  0.75000000  1
  N  N15  1  0.82735800  0.22977600  0.54652800  1
  N  N16  1  0.59758300  0.82735800  0.45347200  1
  N  N17  1  0.68950800  0.00000000  0.75000000  1
  N  N18  1  0.00000000  0.00000000  0.25000000  1
  N  N19  1  0.82735800  0.59758300  0.04652800  1
  O  O0  1  0.10481300  0.80250100  0.71563900  1
  O  O1  1  0.80087400  0.49857800  0.57243600  1
  O  O2  1  0.87339100  0.55742000  0.97775100  1
  O  O3  1  0.71535100  0.81619200  0.91698800  1
  O  O4  1  0.80250100  0.69768800  0.28436100  1
  O  O5  1  0.65273900  0.16856900  0.36388600  1
  O  O6  1  0.10084100  0.81619200  0.41698800  1
  O  O7  1  0.48417000  0.65273900  0.63611400  1
  O  O8  1  0.43179200  0.00000000  0.25000000  1
  O  O9  1  0.55742000  0.68403000  0.02224900  1
  O  O10  1  0.30229600  0.80087400  0.42756400  1
  O  O11  1  0.83143100  0.34726100  0.86388600  1
  O  O12  1  0.43179200  0.43179200  0.75000000  1
  O  O13  1  0.51583000  0.16856900  0.86388600  1
  O  O14  1  0.89518700  0.69768800  0.78436100  1
  O  O15  1  0.89518700  0.19749900  0.28436100  1
  O  O16  1  0.30231200  0.10481300  0.28436100  1
  O  O17  1  0.83143100  0.48417000  0.36388600  1
  O  O18  1  0.19912600  0.69770400  0.92756400  1
  O  O19  1  0.80087400  0.30229600  0.07243600  1
  O  O20  1  0.80250100  0.10481300  0.78436100  1
  O  O21  1  0.12660900  0.44258000  0.02224900  1
  O  O22  1  0.89915900  0.18380800  0.58301200  1
  O  O23  1  0.51583000  0.34726100  0.36388600  1
  O  O24  1  0.00000000  0.00000000  0.17412800  1
  O  O25  1  0.69770400  0.19912600  0.57243600  1
  O  O26  1  0.55742000  0.87339100  0.52224900  1
  O  O27  1  0.69770400  0.49857800  0.07243600  1
  O  O28  1  0.89915900  0.71535100  0.08301200  1
  O  O29  1  0.10481300  0.30231200  0.21563900  1
  O  O30  1  0.12660900  0.68403000  0.52224900  1
  O  O31  1  0.34726100  0.51583000  0.13611400  1
  O  O32  1  0.69768800  0.89518700  0.71563900  1
  O  O33  1  0.18380800  0.89915900  0.91698800  1
  O  O34  1  0.50142200  0.19912600  0.07243600  1
  O  O35  1  0.30229600  0.50142200  0.92756400  1
  O  O36  1  0.16856900  0.65273900  0.13611400  1
  O  O37  1  0.31597000  0.44258000  0.52224900  1
  O  O38  1  0.68403000  0.55742000  0.47775100  1
  O  O39  1  0.34726100  0.83143100  0.63611400  1
  O  O40  1  0.81619200  0.10084100  0.08301200  1
  O  O41  1  0.50142200  0.30229600  0.57243600  1
  O  O42  1  0.28464900  0.10084100  0.58301200  1
  O  O43  1  0.44258000  0.12660900  0.47775100  1
  O  O44  1  0.48417000  0.83143100  0.13611400  1
  O  O45  1  0.00000000  0.00000000  0.67412800  1
  O  O46  1  0.49857800  0.69770400  0.42756400  1
  O  O47  1  0.16856900  0.51583000  0.63611400  1
  O  O48  1  0.49857800  0.80087400  0.92756400  1
  O  O49  1  0.00000000  0.56820800  0.75000000  1
  O  O50  1  0.44258000  0.31597000  0.97775100  1
  O  O51  1  0.69768800  0.80250100  0.21563900  1
  O  O52  1  0.87339100  0.31597000  0.47775100  1
  O  O53  1  0.56820800  0.00000000  0.75000000  1
  O  O54  1  0.81619200  0.71535100  0.58301200  1
  O  O55  1  0.10084100  0.28464900  0.91698800  1
  O  O56  1  0.00000000  0.00000000  0.82587200  1
  O  O57  1  0.65273900  0.48417000  0.86388600  1
  O  O58  1  0.19912600  0.50142200  0.42756400  1
  O  O59  1  0.00000000  0.43179200  0.25000000  1
  O  O60  1  0.56820800  0.56820800  0.25000000  1
  O  O61  1  0.18380800  0.28464900  0.41698800  1
  O  O62  1  0.00000000  0.00000000  0.32587200  1
  O  O63  1  0.71535100  0.89915900  0.41698800  1
  O  O64  1  0.19749900  0.89518700  0.21563900  1
  O  O65  1  0.28464900  0.18380800  0.08301200  1
  O  O66  1  0.30231200  0.19749900  0.78436100  1
  O  O67  1  0.19749900  0.30231200  0.71563900  1
  O  O68  1  0.31597000  0.87339100  0.02224900  1
  O  O69  1  0.68403000  0.12660900  0.97775100  1
loop_
_geom_bond_atom_site_label_1
_geom_bond_atom_site_label_2
_geom_bond_distance
_geom_bond_site_symmetry_2
H0 O7 0.999708 1_555
H0 O12 1.719650 1_555
H1 O17 1.000080 1_555
H1 O4 1.698496 1_555
H2 O11 0.999708 1_555
H2 O49 1.719650 1_655
H3 O47 1.000080 1_555
H3 O67 1.698496 1_555
H4 O23 1.000081 1_555
H4 O16 1.698496 1_555
H5 O39 1.000080 1_555
H5 O0 1.698496 1_555
H6 O5 1.000080 1_555
H6 O15 1.698496 1_555
H7 O44 1.000080 1_555
H7 O51 1.698496 1_555
H8 O44 0.999708 1_555
H8 O8 1.719650 1_565
H9 O13 0.999708 1_555
H9 O53 1.719650 1_555
H10 O31 1.000081 1_555
H10 O29 1.698496 1_555
H11 O57 0.999708 1_555
H11 O12 1.719650 1_555
H12 O13 1.000080 1_555
H12 O66 1.698496 1_555
H13 O31 0.999708 1_555
H13 O60 1.719650 1_555
H14 O36 1.000080 1_555
H14 O64 1.698496 1_555
H15 O5 0.999708 1_555
H15 O8 1.719650 1_555
H16 O7 1.000081 1_555
H16 O32 1.698496 1_555
H17 O39 0.999708 1_555
H17 O53 1.719650 1_565
H18 O47 0.999708 1_555
H18 O49 1.719650 1_555
H19 O23 0.999708 1_555
H19 O60 1.719650 1_555
H20 O17 0.999708 1_555
H20 O59 1.719650 1_655
H21 O11 1.000080 1_555
H21 O20 1.698496 1_555
H22 O36 0.999708 1_555
H22 O59 1.719650 1_555
H23 O57 1.000081 1_555
H23 O14 1.698496 1_555
N0 O4 1.261120 1_555
N0 O51 1.261120 1_555
N0 O60 1.279218 1_555
N1 O29 1.261120 1_555
N1 O15 1.261120 1_455
N1 O59 1.279218 1_555
N2 O61 1.214545 1_555
N2 O58 1.297395 1_555
N2 O37 1.298346 1_555
N3 O40 1.214554 1_555
N3 O19 1.297385 1_555
N3 O69 1.298347 1_554
N4 O55 1.214546 1_555
N4 O35 1.297388 1_555
N4 O21 1.298358 1_556
N5 O42 1.214546 1_555
N5 O41 1.297388 1_555
N5 O43 1.298358 1_555
N6 O16 1.261120 1_555
N6 O64 1.261120 1_545
N6 O8 1.279218 1_555
N7 O6 1.214554 1_555
N7 O10 1.297385 1_555
N7 O30 1.298347 1_555
N8 O3 1.214545 1_555
N8 O48 1.297395 1_555
N8 O9 1.298346 1_556
N9 O54 1.214545 1_555
N9 O1 1.297395 1_555
N9 O38 1.298346 1_555
N10 O56 1.138471 1_555
N10 O45 1.138471 1_555
N11 O65 1.214545 1_555
N11 O34 1.297395 1_555
N11 O50 1.298346 1_554
N12 O33 1.214554 1_555
N12 O18 1.297385 1_555
N12 O68 1.298347 1_556
N13 O14 1.261120 1_455
N13 O0 1.261120 1_555
N13 O49 1.279218 1_555
N14 O66 1.261120 1_555
N14 O67 1.261120 1_555
N14 O12 1.279218 1_555
N15 O22 1.214554 1_555
N15 O25 1.297385 1_555
N15 O52 1.298347 1_555
N16 O63 1.214546 1_555
N16 O46 1.297388 1_555
N16 O26 1.298358 1_555
N17 O32 1.261120 1_545
N17 O20 1.261120 1_555
N17 O53 1.279218 1_555
N18 O24 1.138471 1_555
N18 O62 1.138471 1_555
N19 O28 1.214546 1_555
N19 O27 1.297388 1_555
N19 O2 1.298358 1_554
O1 Zr2 2.296827 1_555
O2 Zr3 2.288063 1_555
O5 Zr2 2.234405 1_555
O7 Zr1 2.234412 1_555
O9 Zr0 2.288063 1_555
O10 Zr1 2.296823 1_555
O11 Zr3 2.234405 1_555
O13 Zr3 2.234408 1_555
O17 Zr2 2.234408 1_555
O18 Zr0 2.296823 1_556
O19 Zr3 2.296823 1_554
O21 Zr0 2.288063 1_555
O23 Zr2 2.234412 1_555
O25 Zr2 2.296823 1_555
O26 Zr1 2.288063 1_555
O27 Zr3 2.296830 1_554
O30 Zr1 2.288063 1_555
O31 Zr0 2.234412 1_555
O34 Zr3 2.296827 1_554
O35 Zr0 2.296830 1_556
O36 Zr0 2.234405 1_555
O37 Zr1 2.288063 1_555
O38 Zr2 2.288063 1_555
O39 Zr1 2.234405 1_555
O41 Zr2 2.296830 1_555
O43 Zr2 2.288063 1_555
O44 Zr0 2.234408 1_555
O46 Zr1 2.296830 1_555
O47 Zr1 2.234408 1_555
O48 Zr0 2.296827 1_556
O50 Zr3 2.288063 1_555
O52 Zr2 2.288063 1_555
O57 Zr3 2.234412 1_555
O58 Zr1 2.296827 1_555
O68 Zr0 2.288063 1_555
O69 Zr3 2.288063 1_555
