# generated using pymatgen
data_C2SClO4F3
_symmetry_space_group_name_H-M   'P 1'
_cell_length_a   25.70921900
_cell_length_b   7.69204400
_cell_length_c   9.97006668
_cell_angle_alpha   49.65782215
_cell_angle_beta   90.00000000
_cell_angle_gamma   90.00000000
_symmetry_Int_Tables_number   1
_chemical_formula_structural   C2SClO4F3
_chemical_formula_sum   'C16 S8 Cl8 O32 F24'
_cell_volume   1502.77198051
_cell_formula_units_Z   8
loop_
 _symmetry_equiv_pos_site_id
 _symmetry_equiv_pos_as_xyz
  1  'x, y, z'
loop_
 _atom_site_type_symbol
 _atom_site_label
 _atom_site_symmetry_multiplicity
 _atom_site_fract_x
 _atom_site_fract_y
 _atom_site_fract_z
 _atom_site_occupancy
  C  C0  1  0.99078000  0.91693000  0.32513500  1
  C  C1  1  0.26197900  0.06038600  0.58672100  1
  C  C2  1  0.66374700  0.26518700  0.90060800  1
  C  C3  1  0.09339400  0.40577100  0.13921900  1
  C  C4  1  0.59339400  0.59422900  0.36078100  1
  C  C5  1  0.16374700  0.73481300  0.59939200  1
  C  C6  1  0.90660600  0.59422900  0.86078100  1
  C  C7  1  0.33625300  0.73481300  0.09939200  1
  C  C8  1  0.83625300  0.26518700  0.40060800  1
  C  C9  1  0.40660600  0.40577100  0.63921900  1
  C  C10  1  0.50922000  0.91693000  0.82513500  1
  C  C11  1  0.49078000  0.08307000  0.17486500  1
  C  C12  1  0.00922000  0.08307000  0.67486500  1
  C  C13  1  0.23802100  0.06038600  0.08672100  1
  C  C14  1  0.76197900  0.93961400  0.91327900  1
  C  C15  1  0.73802100  0.93961400  0.41327900  1
  S  S0  1  0.79001200  0.12730500  0.24247500  1
  S  S1  1  0.29001200  0.87269500  0.25752500  1
  S  S2  1  0.70998800  0.12730500  0.74247500  1
  S  S3  1  0.53590600  0.87158200  0.36478200  1
  S  S4  1  0.03590600  0.12841800  0.13521800  1
  S  S5  1  0.20998800  0.87269500  0.75752500  1
  S  S6  1  0.96409400  0.87158200  0.86478200  1
  S  S7  1  0.46409400  0.12841800  0.63521800  1
  Cl  Cl0  1  0.85122500  0.52230400  0.34714500  1
  Cl  Cl1  1  0.14877500  0.47769600  0.65285500  1
  Cl  Cl2  1  0.60914400  0.51919100  0.23620600  1
  Cl  Cl3  1  0.64877500  0.52230400  0.84714500  1
  Cl  Cl4  1  0.89085600  0.51919100  0.73620600  1
  Cl  Cl5  1  0.35122500  0.47769600  0.15285500  1
  Cl  Cl6  1  0.39085600  0.48080900  0.76379400  1
  Cl  Cl7  1  0.10914400  0.48080900  0.26379400  1
  O  O0  1  0.26472000  0.73561900  0.42477500  1
  O  O1  1  0.66517900  0.99072300  0.78430800  1
  O  O2  1  0.88859500  0.51267100  0.00166700  1
  O  O3  1  0.42287100  0.00583000  0.63302800  1
  O  O4  1  0.55630800  0.76445700  0.27128000  1
  O  O5  1  0.92287100  0.99417000  0.86697200  1
  O  O6  1  0.69911300  0.31060400  0.77530400  1
  O  O7  1  0.33482100  0.00927700  0.21569200  1
  O  O8  1  0.99536500  0.70628900  0.01540900  1
  O  O9  1  0.05630800  0.23554300  0.22872000  1
  O  O10  1  0.19911300  0.68939600  0.72469600  1
  O  O11  1  0.35275500  0.91750200  0.97614900  1
  O  O12  1  0.16517900  0.00927700  0.71569200  1
  O  O13  1  0.85275500  0.08249800  0.52385100  1
  O  O14  1  0.30088700  0.68939600  0.22469600  1
  O  O15  1  0.73528000  0.26438100  0.57522500  1
  O  O16  1  0.14724500  0.91750200  0.47614900  1
  O  O17  1  0.00463500  0.29371100  0.98459100  1
  O  O18  1  0.50463500  0.70628900  0.51540900  1
  O  O19  1  0.64724500  0.08249800  0.02385100  1
  O  O20  1  0.76472000  0.26438100  0.07522500  1
  O  O21  1  0.49536500  0.29371100  0.48459100  1
  O  O22  1  0.38859500  0.48732900  0.49833300  1
  O  O23  1  0.83482100  0.99072300  0.28430800  1
  O  O24  1  0.23528000  0.73561900  0.92477500  1
  O  O25  1  0.61140500  0.51267100  0.50166700  1
  O  O26  1  0.57712900  0.99417000  0.36697200  1
  O  O27  1  0.44369200  0.23554300  0.72872000  1
  O  O28  1  0.07712900  0.00583000  0.13302800  1
  O  O29  1  0.94369200  0.76445700  0.77128000  1
  O  O30  1  0.80088700  0.31060400  0.27530400  1
  O  O31  1  0.11140500  0.48732900  0.99833300  1
  F  F0  1  0.95656000  0.02676000  0.34833900  1
  F  F1  1  0.77666100  0.79232100  0.89059400  1
  F  F2  1  0.19741600  0.93235000  0.11264600  1
  F  F3  1  0.54344000  0.02676000  0.84833900  1
  F  F4  1  0.98185100  0.23372500  0.52688200  1
  F  F5  1  0.22333900  0.20767900  0.10940600  1
  F  F6  1  0.27666100  0.20767900  0.60940600  1
  F  F7  1  0.04344000  0.97324000  0.65166100  1
  F  F8  1  0.30258400  0.93235000  0.61264600  1
  F  F9  1  0.74286000  0.82474000  0.07611500  1
  F  F10  1  0.80258400  0.06765000  0.88735400  1
  F  F11  1  0.03434800  0.19226700  0.71995600  1
  F  F12  1  0.48185100  0.76627500  0.97311800  1
  F  F13  1  0.24286000  0.17526000  0.42388500  1
  F  F14  1  0.53434800  0.80773300  0.78004400  1
  F  F15  1  0.72333900  0.79232100  0.39059400  1
  F  F16  1  0.46565200  0.19226700  0.21995600  1
  F  F17  1  0.75714000  0.82474000  0.57611500  1
  F  F18  1  0.01814900  0.76627500  0.47311800  1
  F  F19  1  0.25714000  0.17526000  0.92388500  1
  F  F20  1  0.96565200  0.80773300  0.28004400  1
  F  F21  1  0.69741600  0.06765000  0.38735400  1
  F  F22  1  0.45656000  0.97324000  0.15166100  1
  F  F23  1  0.51814900  0.23372500  0.02688200  1
loop_
_geom_bond_atom_site_label_1
_geom_bond_atom_site_label_2
_geom_bond_distance
_geom_bond_site_symmetry_2
C0 F0 1.339505 1_565
C0 F18 1.342088 1_655
C0 F20 1.346792 1_555
C0 S4 1.894625 1_665
C1 F8 1.340504 1_545
C1 F13 1.341935 1_555
C1 F6 1.345009 1_555
C1 S5 1.894157 1_545
C2 O19 1.195399 1_556
C2 O6 1.394422 1_555
C2 Cl3 1.725955 1_555
C3 O31 1.200046 1_554
C3 O9 1.380979 1_555
C3 Cl7 1.722756 1_555
C4 O25 1.200046 1_555
C4 O4 1.380979 1_555
C4 Cl2 1.722756 1_555
C5 O16 1.195399 1_555
C5 O10 1.394422 1_555
C5 Cl1 1.725955 1_555
C6 O2 1.200046 1_556
C6 O29 1.380979 1_555
C6 Cl4 1.722756 1_555
C7 O11 1.195399 1_554
C7 O14 1.394422 1_555
C7 Cl5 1.725955 1_555
C8 O13 1.195399 1_555
C8 O30 1.394422 1_555
C8 Cl0 1.725955 1_555
C9 O22 1.200046 1_555
C9 O27 1.380979 1_555
C9 Cl6 1.722756 1_555
C10 F3 1.339505 1_565
C10 F12 1.342088 1_555
C10 F14 1.346792 1_555
C10 S7 1.894625 1_565
C11 F22 1.339505 1_545
C11 F23 1.342088 1_555
C11 F16 1.346792 1_555
C11 S3 1.894625 1_545
C12 F7 1.339505 1_545
C12 F4 1.342088 1_455
C12 F11 1.346792 1_555
C12 S6 1.894625 1_445
C13 F2 1.340504 1_545
C13 F19 1.341935 1_554
C13 F5 1.345009 1_555
C13 S1 1.894157 1_545
C14 F10 1.340504 1_565
C14 F9 1.341935 1_556
C14 F1 1.345009 1_555
C14 S2 1.894157 1_565
C15 F21 1.340504 1_565
C15 F17 1.341935 1_555
C15 F15 1.345009 1_555
C15 S0 1.894157 1_565
O0 S1 1.427849 1_555
O1 S2 1.427412 1_565
O3 S7 1.428108 1_555
O4 S3 1.678597 1_555
O5 S6 1.428108 1_555
O6 S2 1.664550 1_555
O7 S1 1.427412 1_545
O8 S6 1.430414 1_554
O9 S4 1.678597 1_555
O10 S5 1.664550 1_555
O12 S5 1.427412 1_545
O14 S1 1.664550 1_555
O15 S2 1.427849 1_555
O17 S4 1.430414 1_556
O18 S3 1.430414 1_555
O20 S0 1.427849 1_555
O21 S7 1.430414 1_555
O23 S0 1.427412 1_565
O24 S5 1.427849 1_555
O26 S3 1.428108 1_555
O27 S7 1.678597 1_555
O28 S4 1.428108 1_555
O29 S6 1.678597 1_555
O30 S0 1.664550 1_555
