# generated using pymatgen
data_Mn2Nb2Zn2O9
_symmetry_space_group_name_H-M   'P 1'
_cell_length_a   5.32332416
_cell_length_b   5.32332416
_cell_length_c   14.58557100
_cell_angle_alpha   90.00000000
_cell_angle_beta   90.00000000
_cell_angle_gamma   120.00000197
_symmetry_Int_Tables_number   1
_chemical_formula_structural   Mn2Nb2Zn2O9
_chemical_formula_sum   'Mn4 Nb4 Zn4 O18'
_cell_volume   357.94795419
_cell_formula_units_Z   2
loop_
 _symmetry_equiv_pos_site_id
 _symmetry_equiv_pos_as_xyz
  1  'x, y, z'
loop_
 _atom_site_type_symbol
 _atom_site_label
 _atom_site_symmetry_multiplicity
 _atom_site_fract_x
 _atom_site_fract_y
 _atom_site_fract_z
 _atom_site_occupancy
  Mn  Mn0  1  0.33333300  0.66666700  0.01757100  1
  Mn  Mn1  1  0.33333300  0.66666700  0.51757100  1
  Mn  Mn2  1  0.66666700  0.33333300  0.98874900  1
  Mn  Mn3  1  0.66666700  0.33333300  0.48874900  1
  Nb  Nb0  1  0.00000000  0.00000000  0.64389400  1
  Nb  Nb1  1  0.00000000  0.00000000  0.14389400  1
  Nb  Nb2  1  0.00000000  0.00000000  0.86184100  1
  Nb  Nb3  1  0.00000000  0.00000000  0.36184100  1
  Zn  Zn0  1  0.66666700  0.33333300  0.71065100  1
  Zn  Zn1  1  0.33333300  0.66666700  0.29719000  1
  Zn  Zn2  1  0.33333300  0.66666700  0.79719000  1
  Zn  Zn3  1  0.66666700  0.33333300  0.21065100  1
  O  O0  1  0.68880700  0.66322600  0.58834100  1
  O  O1  1  0.00033500  0.71368600  0.75293900  1
  O  O2  1  0.66260400  0.97422300  0.41715500  1
  O  O3  1  0.31161900  0.33739600  0.41715500  1
  O  O4  1  0.97441900  0.31119300  0.58834100  1
  O  O5  1  0.71335100  0.71368600  0.25293900  1
  O  O6  1  0.02577700  0.33739600  0.91715500  1
  O  O7  1  0.33677400  0.02558100  0.58834100  1
  O  O8  1  0.33677400  0.31119300  0.08834100  1
  O  O9  1  0.02577700  0.68838100  0.41715500  1
  O  O10  1  0.66260400  0.68838100  0.91715500  1
  O  O11  1  0.68880700  0.02558100  0.08834100  1
  O  O12  1  0.71335100  0.99966500  0.75293900  1
  O  O13  1  0.28631400  0.28664900  0.75293900  1
  O  O14  1  0.28631400  0.99966500  0.25293900  1
  O  O15  1  0.97441900  0.66322600  0.08834100  1
  O  O16  1  0.00033500  0.28664900  0.25293900  1
  O  O17  1  0.31161900  0.97422300  0.91715500  1
loop_
_geom_bond_atom_site_label_1
_geom_bond_atom_site_label_2
_geom_bond_distance
_geom_bond_site_symmetry_2
Mn0 O15 2.163624 1_455
Mn0 O11 2.163626 1_565
Mn0 O8 2.163629 1_555
Mn0 O17 2.242370 1_554
Mn0 O6 2.242372 1_554
Mn0 O10 2.242374 1_554
Mn1 O7 2.163624 1_565
Mn1 O4 2.163626 1_455
Mn1 O0 2.163629 1_555
Mn1 O9 2.242370 1_555
Mn1 O2 2.242372 1_555
Mn1 O3 2.242374 1_555
Mn2 O6 2.168870 1_655
Mn2 O17 2.168872 1_545
Mn2 O10 2.168875 1_555
Mn2 O11 2.236280 1_556
Mn2 O15 2.236282 1_556
Mn2 O8 2.236284 1_556
Mn3 O2 2.168870 1_545
Mn3 O9 2.168872 1_655
Mn3 O3 2.168875 1_555
Mn3 O4 2.236280 1_555
Mn3 O7 2.236282 1_555
Mn3 O0 2.236284 1_555
Nb0 O0 1.909171 1_445
Nb0 O7 1.909171 1_555
Nb0 O4 1.909171 1_455
Nb0 O13 2.203490 1_555
Nb0 O12 2.203490 1_445
Nb0 O1 2.203490 1_545
Nb1 O8 1.909171 1_555
Nb1 O15 1.909171 1_445
Nb1 O11 1.909171 1_455
Nb1 O5 2.203490 1_445
Nb1 O16 2.203490 1_555
Nb1 O14 2.203490 1_545
Nb2 O10 1.910272 1_445
Nb2 O6 1.910272 1_555
Nb2 O17 1.910272 1_545
Nb2 O13 2.201985 1_555
Nb2 O12 2.201985 1_445
Nb2 O1 2.201985 1_545
Nb3 O3 1.910272 1_555
Nb3 O2 1.910272 1_445
Nb3 O9 1.910272 1_545
Nb3 O5 2.201985 1_445
Nb3 O16 2.201985 1_555
Nb3 O14 2.201985 1_545
O0 Zn0 2.464430 1_555
O1 Zn0 2.009625 1_455
O1 Zn2 2.016240 1_555
O2 Zn1 2.438188 1_555
O3 Zn1 2.438190 1_555
O4 Zn0 2.464427 1_555
O5 Zn3 2.009627 1_555
O5 Zn1 2.016245 1_555
O6 Zn2 2.438188 1_555
O7 Zn0 2.464429 1_555
O8 Zn3 2.464430 1_555
O9 Zn1 2.438186 1_555
O10 Zn2 2.438190 1_555
O11 Zn3 2.464427 1_555
O12 Zn0 2.009622 1_565
O12 Zn2 2.016243 1_555
O13 Zn0 2.009627 1_555
O13 Zn2 2.016245 1_555
O14 Zn3 2.009625 1_565
O14 Zn1 2.016240 1_555
O15 Zn3 2.464429 1_555
O16 Zn3 2.009622 1_455
O16 Zn1 2.016243 1_555
O17 Zn2 2.438186 1_555
