# generated using pymatgen
data_SnO2
_symmetry_space_group_name_H-M   'P 1'
_cell_length_a   3.24089800
_cell_length_b   4.78800400
_cell_length_c   4.86658200
_cell_angle_alpha   90.00000000
_cell_angle_beta   90.00000000
_cell_angle_gamma   90.00000000
_symmetry_Int_Tables_number   1
_chemical_formula_structural   SnO2
_chemical_formula_sum   'Sn2 O4'
_cell_volume   75.51685812
_cell_formula_units_Z   2
loop_
 _symmetry_equiv_pos_site_id
 _symmetry_equiv_pos_as_xyz
  1  'x, y, z'
loop_
 _atom_site_type_symbol
 _atom_site_label
 _atom_site_symmetry_multiplicity
 _atom_site_fract_x
 _atom_site_fract_y
 _atom_site_fract_z
 _atom_site_occupancy
  Sn  Sn0  1  0.50000000  0.50000000  0.50000000  1
  Sn  Sn1  1  0.00000000  0.00000000  0.00000000  1
  O  O0  1  0.00000000  0.29185500  0.32104200  1
  O  O1  1  0.50000000  0.79185500  0.17895800  1
  O  O2  1  0.50000000  0.20814500  0.82104200  1
  O  O3  1  0.00000000  0.70814500  0.67895800  1
loop_
_geom_bond_atom_site_label_1
_geom_bond_atom_site_label_2
_geom_bond_distance
_geom_bond_site_symmetry_2
O0 Sn0 2.092261 1_555
O0 Sn0 2.092261 1_455
O0 Sn1 2.096129 1_555
O1 Sn1 2.092261 1_665
O1 Sn1 2.092261 1_565
O1 Sn0 2.096129 1_555
O2 Sn1 2.092261 1_656
O2 Sn1 2.092261 1_556
O2 Sn0 2.096129 1_555
O3 Sn0 2.092261 1_555
O3 Sn0 2.092261 1_455
O3 Sn1 2.096129 1_566
