# generated using pymatgen
data_Mg3B(OF)3
_symmetry_space_group_name_H-M   'P 1'
_cell_length_a   8.79388391
_cell_length_b   8.79388392
_cell_length_c   3.08871949
_cell_angle_alpha   90.00000000
_cell_angle_beta   90.00000000
_cell_angle_gamma   120.00000319
_symmetry_Int_Tables_number   1
_chemical_formula_structural   Mg3B(OF)3
_chemical_formula_sum   'Mg6 B2 O6 F6'
_cell_volume   206.85715287
_cell_formula_units_Z   2
loop_
 _symmetry_equiv_pos_site_id
 _symmetry_equiv_pos_as_xyz
  1  'x, y, z'
loop_
 _atom_site_type_symbol
 _atom_site_label
 _atom_site_symmetry_multiplicity
 _atom_site_fract_x
 _atom_site_fract_y
 _atom_site_fract_z
 _atom_site_occupancy
  Mg  Mg0  1  0.36711269  0.03052083  0.25000000  1
  Mg  Mg1  1  0.03052083  0.66340814  0.75000000  1
  Mg  Mg2  1  0.63288731  0.96947917  0.75000000  1
  Mg  Mg3  1  0.66340814  0.63288731  0.25000000  1
  Mg  Mg4  1  0.96947917  0.33659186  0.25000000  1
  Mg  Mg5  1  0.33659186  0.36711269  0.75000000  1
  B  B0  1  0.33333300  0.66666700  0.25000000  1
  B  B1  1  0.66666700  0.33333300  0.75000000  1
  O  O0  1  0.44979928  0.84586573  0.25000000  1
  O  O1  1  0.84586573  0.39606646  0.75000000  1
  O  O2  1  0.39606646  0.55020072  0.25000000  1
  O  O3  1  0.60393354  0.44979928  0.75000000  1
  O  O4  1  0.55020072  0.15413427  0.75000000  1
  O  O5  1  0.15413427  0.60393354  0.25000000  1
  F  F0  1  0.70001863  0.78962662  0.75000000  1
  F  F1  1  0.21037338  0.91039200  0.75000000  1
  F  F2  1  0.29998137  0.21037338  0.25000000  1
  F  F3  1  0.91039200  0.70001863  0.25000000  1
  F  F4  1  0.78962662  0.08960800  0.25000000  1
  F  F5  1  0.08960800  0.29998137  0.75000000  1
loop_
_geom_bond_atom_site_label_1
_geom_bond_atom_site_label_2
_geom_bond_distance
_geom_bond_site_symmetry_2
Mg0 O0 2.084783 1_545
Mg0 O4 2.099711 1_554
Mg0 O4 2.099711 1_555
Mg1 O1 2.084782 1_455
Mg1 O5 2.099711 1_556
Mg1 O5 2.099711 1_555
Mg2 O4 2.084783 1_565
Mg2 O0 2.099711 1_555
Mg2 O0 2.099711 1_556
Mg3 O2 2.084783 1_555
Mg3 O3 2.099711 1_555
Mg3 O3 2.099711 1_554
Mg4 O5 2.084782 1_655
Mg4 O1 2.099711 1_555
Mg4 O1 2.099711 1_554
Mg5 O3 2.084783 1_555
Mg5 O2 2.099711 1_556
Mg5 O2 2.099711 1_555
B0 O5 1.385027 1_555
B0 O0 1.385029 1_555
B0 O2 1.385036 1_555
B1 O1 1.385027 1_555
B1 O4 1.385029 1_555
B1 O3 1.385036 1_555
F0 Mg2 1.945164 1_555
F0 Mg3 1.986148 1_556
F0 Mg3 1.986148 1_555
F1 Mg1 1.945164 1_555
F1 Mg0 1.986148 1_566
F1 Mg0 1.986148 1_565
F2 Mg0 1.945164 1_555
F2 Mg5 1.986148 1_554
F2 Mg5 1.986148 1_555
F3 Mg3 1.945164 1_555
F3 Mg1 1.986148 1_654
F3 Mg1 1.986148 1_655
F4 Mg4 1.945164 1_555
F4 Mg2 1.986148 1_544
F4 Mg2 1.986148 1_545
F5 Mg5 1.945164 1_555
F5 Mg4 1.986148 1_455
F5 Mg4 1.986148 1_456
