# generated using pymatgen
data_Dy(Al2Fe)4
_symmetry_space_group_name_H-M   'P 1'
_cell_length_a   4.98684210
_cell_length_b   6.63836647
_cell_length_c   6.63827884
_cell_angle_alpha   81.89675812
_cell_angle_beta   67.97360715
_cell_angle_gamma   67.97420968
_symmetry_Int_Tables_number   1
_chemical_formula_structural   Dy(Al2Fe)4
_chemical_formula_sum   'Dy1 Al8 Fe4'
_cell_volume   188.84874853
_cell_formula_units_Z   1
loop_
 _symmetry_equiv_pos_site_id
 _symmetry_equiv_pos_as_xyz
  1  'x, y, z'
loop_
 _atom_site_type_symbol
 _atom_site_label
 _atom_site_symmetry_multiplicity
 _atom_site_fract_x
 _atom_site_fract_y
 _atom_site_fract_z
 _atom_site_occupancy
  Dy  Dy0  1  -0.00000000  0.00000000  0.00000000  1
  Al  Al0  1  0.65838895  0.34174319  0.34177896  1
  Al  Al1  1  0.99999414  0.65823431  0.34177175  1
  Al  Al2  1  0.00000586  0.34176569  0.65822825  1
  Al  Al3  1  0.34161105  0.65825681  0.65822104  1
  Al  Al4  1  0.72184802  0.77796065  0.77796133  1
  Al  Al5  1  0.27815198  0.22203935  0.22203867  1
  Al  Al6  1  0.49999081  0.77803991  0.22197651  1
  Al  Al7  1  0.50000919  0.22196009  0.77802349  1
  Fe  Fe0  1  -0.00000000  0.00000000  0.50000000  1
  Fe  Fe1  1  0.50000000  0.50000000  0.00000000  1
  Fe  Fe2  1  -0.00000000  0.50000000  0.00000000  1
  Fe  Fe3  1  0.50000000  0.00000000  0.50000000  1
loop_
_geom_bond_atom_site_label_1
_geom_bond_atom_site_label_2
_geom_bond_distance
_geom_bond_site_symmetry_2
Dy0 Fe0 3.319139 1_555
Dy0 Fe0 3.319139 1_554
Dy0 Fe2 3.319183 1_545
Dy0 Fe2 3.319183 1_555
Dy0 Fe3 3.320583 1_554
Dy0 Fe3 3.320583 1_455
Dy0 Fe1 3.320638 1_545
Dy0 Fe1 3.320638 1_455
Al0 Fe0 2.631257 1_655
Al0 Fe3 2.631287 1_555
Al0 Fe2 2.631484 1_655
Al0 Fe1 2.631529 1_555
Al0 Al5 2.701390 1_555
Al0 Al5 2.703472 1_655
Al0 Al3 2.754746 1_555
Al0 Al7 2.783650 1_555
Al0 Al6 2.784033 1_555
Al0 Dy0 2.974818 1_655
Al0 Al2 3.162216 1_655
Al0 Al1 3.162365 1_555
Al0 Al2 3.165290 1_555
Al0 Al1 3.165499 1_455
Al1 Fe0 2.631054 1_665
Al1 Fe2 2.631064 1_655
Al1 Fe3 2.632871 1_565
Al1 Fe1 2.632902 1_655
Al1 Al6 2.702544 1_555
Al1 Al6 2.702554 1_655
Al1 Al2 2.753614 1_655
Al1 Al4 2.783746 1_555
Al1 Al5 2.783831 1_655
Al1 Dy0 2.973809 1_665
Al1 Al3 3.162216 1_655
Al1 Al3 3.165290 1_555
Al2 Fe0 2.631054 1_555
Al2 Fe2 2.631064 1_556
Al2 Fe3 2.632871 1_555
Al2 Fe1 2.632902 1_456
Al2 Al7 2.702544 1_555
Al2 Al7 2.702554 1_455
Al2 Al5 2.783746 1_555
Al2 Al4 2.783831 1_455
Al2 Dy0 2.973809 1_556
Al2 Al3 3.162365 1_555
Al2 Al3 3.165499 1_455
Al3 Fe0 2.631257 1_565
Al3 Fe3 2.631287 1_565
Al3 Fe2 2.631484 1_556
Al3 Fe1 2.631529 1_556
Al3 Al4 2.701390 1_555
Al3 Al4 2.703472 1_455
Al3 Al6 2.783650 1_555
Al3 Al7 2.784033 1_555
Al3 Dy0 2.974818 1_566
Al4 Fe1 2.518444 1_556
Al4 Fe3 2.518450 1_565
Al4 Fe0 2.519598 1_665
Al4 Fe2 2.519609 1_656
Al4 Al7 2.732313 1_565
Al4 Al6 2.732363 1_556
Al4 Dy0 3.154160 1_666
Al4 Dy0 3.155364 1_566
Al5 Fe1 2.518444 1_555
Al5 Fe3 2.518450 1_555
Al5 Fe0 2.519598 1_555
Al5 Fe2 2.519609 1_555
Al5 Al6 2.732313 1_545
Al5 Al7 2.732363 1_554
Al5 Dy0 3.154160 1_555
Al5 Dy0 3.155364 1_655
Al6 Fe3 2.518739 1_565
Al6 Fe1 2.518864 1_555
Al6 Fe0 2.520642 1_565
Al6 Fe2 2.520779 1_655
Al6 Dy0 3.153955 1_665
Al6 Dy0 3.153959 1_565
Al7 Fe3 2.518739 1_555
Al7 Fe1 2.518864 1_556
Al7 Fe0 2.520642 1_655
Al7 Fe2 2.520779 1_556
Al7 Dy0 3.153955 1_556
Al7 Dy0 3.153959 1_656
Fe0 Fe3 2.493421 1_455
Fe0 Fe3 2.493421 1_555
Fe1 Fe2 2.493421 1_655
Fe1 Fe2 2.493421 1_555
