# generated using pymatgen
data_GdBi2BrO4
_symmetry_space_group_name_H-M   'P 1'
_cell_length_a   7.88932200
_cell_length_b   7.88932200
_cell_length_c   18.74492600
_cell_angle_alpha   90.00000000
_cell_angle_beta   90.00000000
_cell_angle_gamma   90.00000000
_symmetry_Int_Tables_number   1
_chemical_formula_structural   GdBi2BrO4
_chemical_formula_sum   'Gd8 Bi16 Br8 O32'
_cell_volume   1166.71046750
_cell_formula_units_Z   8
loop_
 _symmetry_equiv_pos_site_id
 _symmetry_equiv_pos_as_xyz
  1  'x, y, z'
loop_
 _atom_site_type_symbol
 _atom_site_label
 _atom_site_symmetry_multiplicity
 _atom_site_fract_x
 _atom_site_fract_y
 _atom_site_fract_z
 _atom_site_occupancy
  Gd  Gd0_0  1  0.00000000  0.00000000  0.00000000  1
  Gd  Gd0_1  1  0.00000000  0.00000000  0.50000000  1
  Gd  Gd0_2  1  0.00000000  0.50000000  0.00000000  1
  Gd  Gd0_3  1  0.00000000  0.50000000  0.50000000  1
  Gd  Gd0_4  1  0.50000000  0.00000000  0.00000000  1
  Gd  Gd0_5  1  0.50000000  0.00000000  0.50000000  1
  Gd  Gd0_6  1  0.50000000  0.50000000  0.00000000  1
  Gd  Gd0_7  1  0.50000000  0.50000000  0.50000000  1
  Bi  Bi0_0  1  0.25000000  0.25000000  0.13493550  1
  Bi  Bi0_1  1  0.25000000  0.25000000  0.63493550  1
  Bi  Bi0_2  1  0.25000000  0.75000000  0.13493550  1
  Bi  Bi0_3  1  0.25000000  0.75000000  0.63493550  1
  Bi  Bi0_4  1  0.75000000  0.25000000  0.13493550  1
  Bi  Bi0_5  1  0.75000000  0.25000000  0.63493550  1
  Bi  Bi0_6  1  0.75000000  0.75000000  0.13493550  1
  Bi  Bi0_7  1  0.75000000  0.75000000  0.63493550  1
  Bi  Bi1_0  1  0.25000000  0.25000000  0.36506450  1
  Bi  Bi1_1  1  0.25000000  0.25000000  0.86506450  1
  Bi  Bi1_2  1  0.25000000  0.75000000  0.36506450  1
  Bi  Bi1_3  1  0.25000000  0.75000000  0.86506450  1
  Bi  Bi1_4  1  0.75000000  0.25000000  0.36506450  1
  Bi  Bi1_5  1  0.75000000  0.25000000  0.86506450  1
  Bi  Bi1_6  1  0.75000000  0.75000000  0.36506450  1
  Bi  Bi1_7  1  0.75000000  0.75000000  0.86506450  1
  Br  Br0_0  1  0.00000000  0.00000000  0.25000000  1
  Br  Br0_1  1  0.00000000  0.00000000  0.75000000  1
  Br  Br0_2  1  0.00000000  0.50000000  0.25000000  1
  Br  Br0_3  1  0.00000000  0.50000000  0.75000000  1
  Br  Br0_4  1  0.50000000  0.00000000  0.25000000  1
  Br  Br0_5  1  0.50000000  0.00000000  0.75000000  1
  Br  Br0_6  1  0.50000000  0.50000000  0.25000000  1
  Br  Br0_7  1  0.50000000  0.50000000  0.75000000  1
  O  O0_0  1  0.00000000  0.25000000  0.07580600  1
  O  O0_1  1  0.00000000  0.25000000  0.57580600  1
  O  O0_2  1  0.00000000  0.75000000  0.07580600  1
  O  O0_3  1  0.00000000  0.75000000  0.57580600  1
  O  O0_4  1  0.50000000  0.25000000  0.07580600  1
  O  O0_5  1  0.50000000  0.25000000  0.57580600  1
  O  O0_6  1  0.50000000  0.75000000  0.07580600  1
  O  O0_7  1  0.50000000  0.75000000  0.57580600  1
  O  O1_0  1  0.25000000  0.00000000  0.42419400  1
  O  O1_1  1  0.25000000  0.00000000  0.92419400  1
  O  O1_2  1  0.25000000  0.50000000  0.42419400  1
  O  O1_3  1  0.25000000  0.50000000  0.92419400  1
  O  O1_4  1  0.75000000  0.00000000  0.42419400  1
  O  O1_5  1  0.75000000  0.00000000  0.92419400  1
  O  O1_6  1  0.75000000  0.50000000  0.42419400  1
  O  O1_7  1  0.75000000  0.50000000  0.92419400  1
  O  O2_0  1  0.00000000  0.25000000  0.42419400  1
  O  O2_1  1  0.00000000  0.25000000  0.92419400  1
  O  O2_2  1  0.00000000  0.75000000  0.42419400  1
  O  O2_3  1  0.00000000  0.75000000  0.92419400  1
  O  O2_4  1  0.50000000  0.25000000  0.42419400  1
  O  O2_5  1  0.50000000  0.25000000  0.92419400  1
  O  O2_6  1  0.50000000  0.75000000  0.42419400  1
  O  O2_7  1  0.50000000  0.75000000  0.92419400  1
  O  O3_0  1  0.25000000  0.00000000  0.07580600  1
  O  O3_1  1  0.25000000  0.00000000  0.57580600  1
  O  O3_2  1  0.25000000  0.50000000  0.07580600  1
  O  O3_3  1  0.25000000  0.50000000  0.57580600  1
  O  O3_4  1  0.75000000  0.00000000  0.07580600  1
  O  O3_5  1  0.75000000  0.00000000  0.57580600  1
  O  O3_6  1  0.75000000  0.50000000  0.07580600  1
  O  O3_7  1  0.75000000  0.50000000  0.57580600  1
loop_
_geom_bond_atom_site_label_1
_geom_bond_atom_site_label_2
_geom_bond_distance
_geom_bond_site_symmetry_2
Gd0_0 O3_4 2.430898 1_455
Gd0_0 O0_0 2.430898 1_555
Gd0_0 O3_0 2.430898 1_555
Gd0_0 O0_2 2.430898 1_545
Gd0_0 O1_5 2.430898 1_454
Gd0_0 O2_3 2.430898 1_544
Gd0_0 O2_1 2.430898 1_554
Gd0_0 O1_1 2.430898 1_554
Gd0_1 O0_1 2.430898 1_555
Gd0_1 O3_1 2.430898 1_555
Gd0_1 O3_5 2.430898 1_455
Gd0_1 O0_3 2.430898 1_545
Gd0_1 O2_2 2.430898 1_545
Gd0_1 O1_4 2.430898 1_455
Gd0_1 O1_0 2.430898 1_555
Gd0_1 O2_0 2.430898 1_555
Gd0_2 O0_2 2.430898 1_555
Gd0_2 O0_0 2.430898 1_555
Gd0_2 O3_2 2.430898 1_555
Gd0_2 O3_6 2.430898 1_455
Gd0_2 O2_3 2.430898 1_554
Gd0_2 O1_3 2.430898 1_554
Gd0_2 O2_1 2.430898 1_554
Gd0_2 O1_7 2.430898 1_454
Gd0_3 O0_1 2.430898 1_555
Gd0_3 O3_3 2.430898 1_555
Gd0_3 O3_7 2.430898 1_455
Gd0_3 O0_3 2.430898 1_555
Gd0_3 O2_0 2.430898 1_555
Gd0_3 O2_2 2.430898 1_555
Gd0_3 O1_2 2.430898 1_555
Gd0_3 O1_6 2.430898 1_455
Gd0_4 O3_0 2.430898 1_555
Gd0_4 O3_4 2.430898 1_555
Gd0_4 O0_4 2.430898 1_555
Gd0_4 O0_6 2.430898 1_545
Gd0_4 O1_5 2.430898 1_554
Gd0_4 O2_5 2.430898 1_554
Gd0_4 O2_7 2.430898 1_544
Gd0_4 O1_1 2.430898 1_554
Gd0_5 O3_5 2.430898 1_555
Gd0_5 O0_5 2.430898 1_555
Gd0_5 O0_7 2.430898 1_545
Gd0_5 O3_1 2.430898 1_555
Gd0_5 O2_6 2.430898 1_545
Gd0_5 O2_4 2.430898 1_555
Gd0_5 O1_0 2.430898 1_555
Gd0_5 O1_4 2.430898 1_555
Gd0_6 O3_6 2.430898 1_555
Gd0_6 O0_6 2.430898 1_555
Gd0_6 O3_2 2.430898 1_555
Gd0_6 O0_4 2.430898 1_555
Gd0_6 O1_3 2.430898 1_554
Gd0_6 O2_7 2.430898 1_554
Gd0_6 O2_5 2.430898 1_554
Gd0_6 O1_7 2.430898 1_554
Gd0_7 O3_7 2.430898 1_555
Gd0_7 O0_7 2.430898 1_555
Gd0_7 O3_3 2.430898 1_555
Gd0_7 O0_5 2.430898 1_555
Gd0_7 O2_4 2.430898 1_555
Gd0_7 O1_6 2.430898 1_555
Gd0_7 O2_6 2.430898 1_555
Gd0_7 O1_2 2.430898 1_555
Bi0_0 O3_0 2.262430 1_555
Bi0_0 O0_0 2.262430 1_555
Bi0_0 O3_2 2.262430 1_555
Bi0_0 O0_4 2.262430 1_555
Bi0_0 Br0_6 3.525945 1_555
Bi0_0 Br0_0 3.525945 1_555
Bi0_0 Br0_4 3.525945 1_555
Bi0_0 Br0_2 3.525945 1_555
Bi0_1 O3_3 2.262430 1_555
Bi0_1 O0_5 2.262430 1_555
Bi0_1 O3_1 2.262430 1_555
Bi0_1 O0_1 2.262430 1_555
Bi0_1 Br0_1 3.525945 1_555
Bi0_1 Br0_5 3.525945 1_555
Bi0_1 Br0_3 3.525945 1_555
Bi0_1 Br0_7 3.525945 1_555
Bi0_2 O0_2 2.262430 1_555
Bi0_2 O0_6 2.262430 1_555
Bi0_2 O3_0 2.262430 1_565
Bi0_2 O3_2 2.262430 1_555
Bi0_2 Br0_6 3.525945 1_555
Bi0_2 Br0_0 3.525945 1_565
Bi0_2 Br0_4 3.525945 1_565
Bi0_2 Br0_2 3.525945 1_555
Bi0_3 O3_3 2.262430 1_555
Bi0_3 O3_1 2.262430 1_565
Bi0_3 O0_3 2.262430 1_555
Bi0_3 O0_7 2.262430 1_555
Bi0_3 Br0_1 3.525945 1_565
Bi0_3 Br0_5 3.525945 1_565
Bi0_3 Br0_3 3.525945 1_555
Bi0_3 Br0_7 3.525945 1_555
Bi0_4 O3_6 2.262430 1_555
Bi0_4 O0_0 2.262430 1_655
Bi0_4 O3_4 2.262430 1_555
Bi0_4 O0_4 2.262430 1_555
Bi0_4 Br0_6 3.525945 1_555
Bi0_4 Br0_0 3.525945 1_655
Bi0_4 Br0_4 3.525945 1_555
Bi0_4 Br0_2 3.525945 1_655
Bi0_5 O3_5 2.262430 1_555
Bi0_5 O0_5 2.262430 1_555
Bi0_5 O3_7 2.262430 1_555
Bi0_5 O0_1 2.262430 1_655
Bi0_5 Br0_1 3.525945 1_655
Bi0_5 Br0_5 3.525945 1_555
Bi0_5 Br0_3 3.525945 1_655
Bi0_5 Br0_7 3.525945 1_555
Bi0_6 O3_4 2.262430 1_565
Bi0_6 O3_6 2.262430 1_555
Bi0_6 O0_6 2.262430 1_555
Bi0_6 O0_2 2.262430 1_655
Bi0_6 Br0_6 3.525945 1_555
Bi0_6 Br0_4 3.525945 1_565
Bi0_6 Br0_0 3.525945 1_665
Bi0_6 Br0_2 3.525945 1_655
Bi0_7 O3_5 2.262430 1_565
Bi0_7 O3_7 2.262430 1_555
Bi0_7 O0_3 2.262430 1_655
Bi0_7 O0_7 2.262430 1_555
Bi0_7 Br0_1 3.525945 1_665
Bi0_7 Br0_5 3.525945 1_565
Bi0_7 Br0_3 3.525945 1_655
Bi0_7 Br0_7 3.525945 1_555
Bi1_0 O1_2 2.262430 1_555
Bi1_0 O2_4 2.262430 1_555
Bi1_0 O1_0 2.262430 1_555
Bi1_0 O2_0 2.262430 1_555
Bi1_0 Br0_6 3.525945 1_555
Bi1_0 Br0_0 3.525945 1_555
Bi1_0 Br0_4 3.525945 1_555
Bi1_0 Br0_2 3.525945 1_555
Bi1_1 O2_1 2.262430 1_555
Bi1_1 O2_5 2.262430 1_555
Bi1_1 O1_3 2.262430 1_555
Bi1_1 O1_1 2.262430 1_555
Bi1_1 Br0_5 3.525945 1_555
Bi1_1 Br0_3 3.525945 1_555
Bi1_1 Br0_7 3.525945 1_555
Bi1_1 Br0_1 3.525945 1_555
Bi1_2 O1_2 2.262430 1_555
Bi1_2 O2_6 2.262430 1_555
Bi1_2 O1_0 2.262430 1_565
Bi1_2 O2_2 2.262430 1_555
Bi1_2 Br0_6 3.525945 1_555
Bi1_2 Br0_0 3.525945 1_565
Bi1_2 Br0_4 3.525945 1_565
Bi1_2 Br0_2 3.525945 1_555
Bi1_3 O1_1 2.262430 1_565
Bi1_3 O1_3 2.262430 1_555
Bi1_3 O2_3 2.262430 1_555
Bi1_3 O2_7 2.262430 1_555
Bi1_3 Br0_1 3.525945 1_565
Bi1_3 Br0_5 3.525945 1_565
Bi1_3 Br0_3 3.525945 1_555
Bi1_3 Br0_7 3.525945 1_555
Bi1_4 O2_0 2.262430 1_655
Bi1_4 O1_4 2.262430 1_555
Bi1_4 O2_4 2.262430 1_555
Bi1_4 O1_6 2.262430 1_555
Bi1_4 Br0_6 3.525945 1_555
Bi1_4 Br0_0 3.525945 1_655
Bi1_4 Br0_4 3.525945 1_555
Bi1_4 Br0_2 3.525945 1_655
Bi1_5 O2_5 2.262430 1_555
Bi1_5 O2_1 2.262430 1_655
Bi1_5 O1_7 2.262430 1_555
Bi1_5 O1_5 2.262430 1_555
Bi1_5 Br0_5 3.525945 1_555
Bi1_5 Br0_3 3.525945 1_655
Bi1_5 Br0_7 3.525945 1_555
Bi1_5 Br0_1 3.525945 1_655
Bi1_6 O2_2 2.262430 1_655
Bi1_6 O2_6 2.262430 1_555
Bi1_6 O1_6 2.262430 1_555
Bi1_6 O1_4 2.262430 1_565
Bi1_6 Br0_6 3.525945 1_555
Bi1_6 Br0_0 3.525945 1_665
Bi1_6 Br0_4 3.525945 1_565
Bi1_6 Br0_2 3.525945 1_655
Bi1_7 O1_7 2.262430 1_555
Bi1_7 O2_7 2.262430 1_555
Bi1_7 O2_3 2.262430 1_655
Bi1_7 O1_5 2.262430 1_565
Bi1_7 Br0_1 3.525945 1_665
Bi1_7 Br0_5 3.525945 1_565
Bi1_7 Br0_3 3.525945 1_655
Bi1_7 Br0_7 3.525945 1_555
Br0_0 O2_2 3.814704 1_545
Br0_0 O1_0 3.814704 1_555
Br0_0 O1_4 3.814704 1_455
Br0_0 O2_0 3.814704 1_555
Br0_0 O0_0 3.814704 1_555
Br0_0 O3_0 3.814704 1_555
Br0_0 O3_4 3.814704 1_455
Br0_0 O0_2 3.814704 1_545
Br0_0 Br0_2 3.944661 1_555
Br0_0 Br0_4 3.944661 1_455
Br0_0 Br0_4 3.944661 1_555
Br0_0 Br0_2 3.944661 1_545
Br0_1 O2_1 3.814704 1_555
Br0_1 O1_1 3.814704 1_555
Br0_1 O2_3 3.814704 1_545
Br0_1 O1_5 3.814704 1_455
Br0_1 O0_3 3.814704 1_545
Br0_1 O0_1 3.814704 1_555
Br0_1 O3_1 3.814704 1_555
Br0_1 O3_5 3.814704 1_455
Br0_1 Br0_3 3.944661 1_555
Br0_1 Br0_5 3.944661 1_555
Br0_1 Br0_3 3.944661 1_545
Br0_1 Br0_5 3.944661 1_455
Br0_2 O1_6 3.814704 1_455
Br0_2 O1_2 3.814704 1_555
Br0_2 O2_0 3.814704 1_555
Br0_2 O2_2 3.814704 1_555
Br0_2 O3_2 3.814704 1_555
Br0_2 O3_6 3.814704 1_455
Br0_2 O0_0 3.814704 1_555
Br0_2 O0_2 3.814704 1_555
Br0_2 Br0_6 3.944661 1_555
Br0_2 Br0_6 3.944661 1_455
Br0_3 O2_1 3.814704 1_555
Br0_3 O1_3 3.814704 1_555
Br0_3 O1_7 3.814704 1_455
Br0_3 O2_3 3.814704 1_555
Br0_3 O0_3 3.814704 1_555
Br0_3 O3_3 3.814704 1_555
Br0_3 O0_1 3.814704 1_555
Br0_3 O3_7 3.814704 1_455
Br0_3 Br0_7 3.944661 1_455
Br0_3 Br0_7 3.944661 1_555
Br0_4 O1_4 3.814704 1_555
Br0_4 O2_6 3.814704 1_545
Br0_4 O2_4 3.814704 1_555
Br0_4 O1_0 3.814704 1_555
Br0_4 O0_4 3.814704 1_555
Br0_4 O3_0 3.814704 1_555
Br0_4 O3_4 3.814704 1_555
Br0_4 O0_6 3.814704 1_545
Br0_4 Br0_6 3.944661 1_555
Br0_4 Br0_6 3.944661 1_545
Br0_5 O2_7 3.814704 1_545
Br0_5 O1_5 3.814704 1_555
Br0_5 O1_1 3.814704 1_555
Br0_5 O2_5 3.814704 1_555
Br0_5 O0_7 3.814704 1_545
Br0_5 O3_5 3.814704 1_555
Br0_5 O0_5 3.814704 1_555
Br0_5 O3_1 3.814704 1_555
Br0_5 Br0_7 3.944661 1_545
Br0_5 Br0_7 3.944661 1_555
Br0_6 O1_6 3.814704 1_555
Br0_6 O2_4 3.814704 1_555
Br0_6 O2_6 3.814704 1_555
Br0_6 O1_2 3.814704 1_555
Br0_6 O3_2 3.814704 1_555
Br0_6 O0_4 3.814704 1_555
Br0_6 O0_6 3.814704 1_555
Br0_6 O3_6 3.814704 1_555
Br0_7 O1_7 3.814704 1_555
Br0_7 O1_3 3.814704 1_555
Br0_7 O2_7 3.814704 1_555
Br0_7 O2_5 3.814704 1_555
Br0_7 O3_7 3.814704 1_555
Br0_7 O3_3 3.814704 1_555
Br0_7 O0_5 3.814704 1_555
Br0_7 O0_7 3.814704 1_555
O0_0 O3_2 2.789297 1_555
O0_0 O3_6 2.789297 1_455
O0_0 O3_4 2.789297 1_455
O0_0 O3_0 2.789297 1_555
O0_0 O2_1 2.841956 1_554
O0_1 O3_3 2.789297 1_555
O0_1 O3_1 2.789297 1_555
O0_1 O3_7 2.789297 1_455
O0_1 O3_5 2.789297 1_455
O0_1 O2_0 2.841956 1_555
O0_2 O3_0 2.789297 1_565
O0_2 O3_2 2.789297 1_555
O0_2 O3_6 2.789297 1_455
O0_2 O3_4 2.789297 1_465
O0_2 O2_3 2.841956 1_554
O0_3 O3_1 2.789297 1_565
O0_3 O3_3 2.789297 1_555
O0_3 O3_7 2.789297 1_455
O0_3 O3_5 2.789297 1_465
O0_3 O2_2 2.841956 1_555
O0_4 O3_2 2.789297 1_555
O0_4 O3_6 2.789297 1_555
O0_4 O3_4 2.789297 1_555
O0_4 O3_0 2.789297 1_555
O0_4 O2_5 2.841956 1_554
O0_5 O3_5 2.789297 1_555
O0_5 O3_3 2.789297 1_555
O0_5 O3_1 2.789297 1_555
O0_5 O3_7 2.789297 1_555
O0_5 O2_4 2.841956 1_555
O0_6 O3_0 2.789297 1_565
O0_6 O3_2 2.789297 1_555
O0_6 O3_4 2.789297 1_565
O0_6 O3_6 2.789297 1_555
O0_6 O2_7 2.841956 1_554
O0_7 O3_1 2.789297 1_565
O0_7 O3_3 2.789297 1_555
O0_7 O3_5 2.789297 1_565
O0_7 O3_7 2.789297 1_555
O0_7 O2_6 2.841956 1_555
O1_0 O2_0 2.789297 1_555
O1_0 O2_2 2.789297 1_545
O1_0 O2_6 2.789297 1_545
O1_0 O2_4 2.789297 1_555
O1_0 O3_1 2.841956 1_555
O1_1 O2_1 2.789297 1_555
O1_1 O2_5 2.789297 1_555
O1_1 O2_3 2.789297 1_545
O1_1 O2_7 2.789297 1_545
O1_1 O3_0 2.841956 1_556
O1_2 O2_0 2.789297 1_555
O1_2 O2_6 2.789297 1_555
O1_2 O2_4 2.789297 1_555
O1_2 O2_2 2.789297 1_555
O1_2 O3_3 2.841956 1_555
O1_3 O2_7 2.789297 1_555
O1_3 O2_3 2.789297 1_555
O1_3 O2_1 2.789297 1_555
O1_3 O2_5 2.789297 1_555
O1_3 O3_2 2.841956 1_556
O1_4 O2_6 2.789297 1_545
O1_4 O2_2 2.789297 1_645
O1_4 O2_0 2.789297 1_655
O1_4 O2_4 2.789297 1_555
O1_4 O3_5 2.841956 1_555
O1_5 O2_5 2.789297 1_555
O1_5 O2_3 2.789297 1_645
O1_5 O2_1 2.789297 1_655
O1_5 O2_7 2.789297 1_545
O1_5 O3_4 2.841956 1_556
O1_6 O2_2 2.789297 1_655
O1_6 O2_6 2.789297 1_555
O1_6 O2_0 2.789297 1_655
O1_6 O2_4 2.789297 1_555
O1_6 O3_7 2.841956 1_555
O1_7 O2_7 2.789297 1_555
O1_7 O2_3 2.789297 1_655
O1_7 O2_5 2.789297 1_555
O1_7 O2_1 2.789297 1_655
O1_7 O3_6 2.841956 1_556
