# generated using pymatgen
data_CoH2SeO4
_symmetry_space_group_name_H-M   'P 1'
_cell_length_a   4.88383518
_cell_length_b   5.72521938
_cell_length_c   13.50396608
_cell_angle_alpha   89.99148516
_cell_angle_beta   89.99331108
_cell_angle_gamma   92.02698956
_symmetry_Int_Tables_number   1
_chemical_formula_structural   CoH2SeO4
_chemical_formula_sum   'Co4 H8 Se4 O16'
_cell_volume   377.34850090
_cell_formula_units_Z   4
loop_
 _symmetry_equiv_pos_site_id
 _symmetry_equiv_pos_as_xyz
  1  'x, y, z'
loop_
 _atom_site_type_symbol
 _atom_site_label
 _atom_site_symmetry_multiplicity
 _atom_site_fract_x
 _atom_site_fract_y
 _atom_site_fract_z
 _atom_site_occupancy
  Co  Co0  1  0.17996600  0.88364700  0.23347900  1
  Co  Co1  1  0.82004000  0.11635100  0.76651900  1
  Co  Co2  1  0.32010300  0.61642100  0.73346500  1
  Co  Co3  1  0.67989400  0.38357300  0.26653500  1
  H  H0  1  0.77186900  0.71287800  0.62948000  1
  H  H1  1  0.72814300  0.78718200  0.12959400  1
  H  H2  1  0.22814700  0.28710200  0.37053200  1
  H  H3  1  0.27187100  0.21282200  0.87041400  1
  H  H4  1  0.66731600  0.45137300  0.61085300  1
  H  H5  1  0.83292800  0.04856400  0.11079700  1
  H  H6  1  0.33266500  0.54862300  0.38914600  1
  H  H7  1  0.16711500  0.95143000  0.88919700  1
  Se  Se0  1  0.23663500  0.11329200  0.60550200  1
  Se  Se1  1  0.26349700  0.38686200  0.10550900  1
  Se  Se2  1  0.76333500  0.88669300  0.39449700  1
  Se  Se3  1  0.73651200  0.61314400  0.89449000  1
  O  O0  1  0.09590800  0.33322100  0.67961200  1
  O  O1  1  0.40434400  0.16685900  0.17954800  1
  O  O2  1  0.90404100  0.66679600  0.32036900  1
  O  O3  1  0.59567400  0.83315700  0.82045700  1
  O  O4  1  0.58931900  0.38192200  0.82362300  1
  O  O5  1  0.91079100  0.11804300  0.32371500  1
  O  O6  1  0.41066400  0.61809300  0.17637500  1
  O  O7  1  0.08921100  0.88197000  0.67629600  1
  O  O8  1  0.07584100  0.62592400  0.86638700  1
  O  O9  1  0.42401600  0.87421100  0.36638400  1
  O  O10  1  0.92416800  0.37405000  0.13361200  1
  O  O11  1  0.57595900  0.12580500  0.63360900  1
  O  O12  1  0.60691300  0.61419000  0.61376700  1
  O  O13  1  0.89317900  0.88571400  0.11378800  1
  O  O14  1  0.39309200  0.38581400  0.38623800  1
  O  O15  1  0.10684200  0.11427500  0.88621500  1
loop_
_geom_bond_atom_site_label_1
_geom_bond_atom_site_label_2
_geom_bond_distance
_geom_bond_site_symmetry_2
Co0 O1 2.057693 1_565
Co0 O6 2.072891 1_555
Co0 O13 2.139161 1_455
Co0 O2 2.148241 1_455
Co0 O9 2.156311 1_555
Co0 O5 2.266898 1_465
Co1 O3 2.057617 1_545
Co1 O4 2.073028 1_555
Co1 O15 2.139261 1_655
Co1 O0 2.148258 1_655
Co1 O11 2.156456 1_555
Co1 O7 2.266740 1_645
Co2 O0 2.057077 1_555
Co2 O7 2.073665 1_555
Co2 O12 2.139089 1_555
Co2 O3 2.147953 1_555
Co2 O8 2.156874 1_555
Co2 O4 2.266765 1_555
Co3 O2 2.056970 1_555
Co3 O5 2.073653 1_555
Co3 O14 2.139116 1_555
Co3 O1 2.147784 1_555
Co3 O10 2.156923 1_555
Co3 O6 2.266894 1_555
H0 O12 0.990533 1_555
H0 O7 1.906088 1_655
H1 O13 0.990553 1_555
H1 O6 1.906239 1_555
H2 O14 0.990545 1_555
H2 O5 1.906056 1_455
H3 O15 0.990558 1_555
H3 O4 1.906194 1_555
H4 O12 0.988414 1_555
H4 O11 1.925817 1_555
H4 O0 2.408636 1_655
H5 O13 0.988381 1_545
H5 O10 1.925486 1_555
H5 O1 2.408705 1_555
H6 O14 0.988406 1_555
H6 O9 1.925934 1_555
H6 O2 2.408905 1_455
H7 O15 0.988385 1_565
H7 O8 1.925618 1_555
H7 O3 2.408501 1_555
O0 Se0 1.766577 1_555
O1 Se1 1.766463 1_555
O2 Se2 1.766539 1_555
O3 Se3 1.766441 1_555
O4 Se3 1.765856 1_555
O5 Se2 1.765958 1_545
O6 Se1 1.765838 1_555
O7 Se0 1.765868 1_565
O8 Se3 1.699130 1_455
O9 Se2 1.699190 1_555
O10 Se1 1.699132 1_655
O11 Se0 1.699197 1_555
