# generated using pymatgen
data_InCl
_symmetry_space_group_name_H-M   'P 1'
_cell_length_a   4.41143600
_cell_length_b   4.54414600
_cell_length_c   6.59945609
_cell_angle_alpha   90.00000000
_cell_angle_beta   109.52555373
_cell_angle_gamma   90.00000000
_symmetry_Int_Tables_number   1
_chemical_formula_structural   InCl
_chemical_formula_sum   'In2 Cl2'
_cell_volume   124.68617869
_cell_formula_units_Z   2
loop_
 _symmetry_equiv_pos_site_id
 _symmetry_equiv_pos_as_xyz
  1  'x, y, z'
loop_
 _atom_site_type_symbol
 _atom_site_label
 _atom_site_symmetry_multiplicity
 _atom_site_fract_x
 _atom_site_fract_y
 _atom_site_fract_z
 _atom_site_occupancy
  In  In0  1  0.38637900  0.24990300  0.77275800  1
  In  In1  1  0.61362100  0.74990300  0.22724200  1
  Cl  Cl0  1  0.15553900  0.23409700  0.31107800  1
  Cl  Cl1  1  0.84446100  0.73409700  0.68892200  1
loop_
_geom_bond_atom_site_label_1
_geom_bond_atom_site_label_2
_geom_bond_distance
_geom_bond_site_symmetry_2
In0 In1 3.626771 1_546
In0 In1 3.626771 1_556
Cl0 In0 2.872519 1_555
Cl0 In1 3.158829 1_445
Cl0 In1 3.158829 1_545
Cl0 In1 3.260516 1_455
Cl0 In1 3.260516 1_555
Cl0 In0 4.010184 1_454
Cl0 In0 4.010184 1_554
Cl1 In1 2.872519 1_555
Cl1 In0 3.158829 1_655
Cl1 In0 3.158829 1_555
Cl1 In0 3.260516 1_665
Cl1 In0 3.260516 1_565
Cl1 In1 4.010184 1_656
Cl1 In1 4.010184 1_556
