# generated using pymatgen
data_BaBiClO2
_symmetry_space_group_name_H-M   'P 1'
_cell_length_a   7.33603537
_cell_length_b   7.33603537
_cell_length_c   5.78393000
_cell_angle_alpha   90.00000000
_cell_angle_beta   90.00000000
_cell_angle_gamma   131.77465084
_symmetry_Int_Tables_number   1
_chemical_formula_structural   BaBiClO2
_chemical_formula_sum   'Ba2 Bi2 Cl2 O4'
_cell_volume   232.14067733
_cell_formula_units_Z   2
loop_
 _symmetry_equiv_pos_site_id
 _symmetry_equiv_pos_as_xyz
  1  'x, y, z'
loop_
 _atom_site_type_symbol
 _atom_site_label
 _atom_site_symmetry_multiplicity
 _atom_site_fract_x
 _atom_site_fract_y
 _atom_site_fract_z
 _atom_site_occupancy
  Ba  Ba0  1  0.61744300  0.38255700  0.75000000  1
  Ba  Ba1  1  0.38255700  0.61744300  0.25000000  1
  Bi  Bi0  1  0.92593200  0.07406800  0.75000000  1
  Bi  Bi1  1  0.07406800  0.92593200  0.25000000  1
  Cl  Cl0  1  0.25414200  0.74585800  0.75000000  1
  Cl  Cl1  1  0.74585800  0.25414200  0.25000000  1
  O  O0  1  0.77237400  0.77237400  0.50000000  1
  O  O1  1  0.22762600  0.22762600  0.50000000  1
  O  O2  1  0.77237400  0.77237400  0.00000000  1
  O  O3  1  0.22762600  0.22762600  0.00000000  1
loop_
_geom_bond_atom_site_label_1
_geom_bond_atom_site_label_2
_geom_bond_distance
_geom_bond_site_symmetry_2
Ba0 O3 2.688852 1_556
Ba0 O1 2.688852 1_555
Ba0 O0 2.688852 1_555
Ba0 O2 2.688852 1_556
Ba0 Cl1 3.364651 1_556
Ba0 Cl1 3.364651 1_555
Ba0 Cl0 3.511886 1_545
Ba0 Cl0 3.511886 1_655
Ba1 O3 2.688852 1_555
Ba1 O1 2.688852 1_555
Ba1 O0 2.688852 1_555
Ba1 O2 2.688852 1_555
Ba1 Cl0 3.364651 1_555
Ba1 Cl0 3.364651 1_554
Ba1 Cl1 3.511886 1_565
Ba1 Cl1 3.511886 1_455
Bi0 O1 2.221782 1_655
Bi0 O3 2.221782 1_656
Bi0 O2 2.221782 1_546
Bi0 O0 2.221782 1_545
Bi0 Cl1 3.765488 1_556
Bi0 Cl1 3.765488 1_555
Bi0 Cl0 3.778194 1_655
Bi0 Cl0 3.778194 1_545
Bi1 O3 2.221782 1_565
Bi1 O1 2.221782 1_565
Bi1 O2 2.221782 1_455
Bi1 O0 2.221782 1_455
Bi1 Cl0 3.765488 1_554
Bi1 Cl0 3.765488 1_555
Bi1 Cl1 3.778194 1_455
Bi1 Cl1 3.778194 1_565
Cl0 Cl1 4.166272 1_566
Cl0 Cl1 4.166272 1_565
Cl0 Cl1 4.166272 1_455
Cl0 Cl1 4.166272 1_456
O0 O1 2.728788 1_665
O0 O2 2.891965 1_555
O0 O2 2.891965 1_556
O1 O3 2.891965 1_555
O1 O3 2.891965 1_556
O2 O3 2.728788 1_665
