# generated using pymatgen
data_MgH2
_symmetry_space_group_name_H-M   'P 1'
_cell_length_a   4.72193596
_cell_length_b   4.87028612
_cell_length_c   9.30579052
_cell_angle_alpha   90.00000000
_cell_angle_beta   90.00000000
_cell_angle_gamma   90.00000000
_symmetry_Int_Tables_number   1
_chemical_formula_structural   MgH2
_chemical_formula_sum   'Mg8 H16'
_cell_volume   214.00693187
_cell_formula_units_Z   8
loop_
 _symmetry_equiv_pos_site_id
 _symmetry_equiv_pos_as_xyz
  1  'x, y, z'
loop_
 _atom_site_type_symbol
 _atom_site_label
 _atom_site_symmetry_multiplicity
 _atom_site_fract_x
 _atom_site_fract_y
 _atom_site_fract_z
 _atom_site_occupancy
  Mg  Mg0  1  0.27482437  0.02861916  0.88219361  1
  Mg  Mg1  1  0.22517563  0.52861916  0.11780639  1
  Mg  Mg2  1  0.72517563  0.47138084  0.38219361  1
  Mg  Mg3  1  0.77482437  0.47138084  0.88219361  1
  Mg  Mg4  1  0.77482437  0.97138084  0.61780639  1
  Mg  Mg5  1  0.27482437  0.52861916  0.61780639  1
  Mg  Mg6  1  0.22517563  0.02861916  0.38219361  1
  Mg  Mg7  1  0.72517563  0.97138084  0.11780639  1
  H  H0  1  0.51142157  0.24221860  0.52523750  1
  H  H1  1  0.01142157  0.25778140  0.52523750  1
  H  H2  1  0.01142157  0.75778140  0.97476250  1
  H  H3  1  0.98857843  0.74221860  0.47476250  1
  H  H4  1  0.33626107  0.37765303  0.29616122  1
  H  H5  1  0.33626107  0.87765303  0.20383878  1
  H  H6  1  0.48857843  0.25778140  0.02523750  1
  H  H7  1  0.98857843  0.24221860  0.02523750  1
  H  H8  1  0.83626107  0.62234697  0.20383878  1
  H  H9  1  0.83626107  0.12234697  0.29616122  1
  H  H10  1  0.51142157  0.74221860  0.97476250  1
  H  H11  1  0.48857843  0.75778140  0.47476250  1
  H  H12  1  0.66373893  0.12234697  0.79616122  1
  H  H13  1  0.16373893  0.87765303  0.70383878  1
  H  H14  1  0.16373893  0.37765303  0.79616122  1
  H  H15  1  0.66373893  0.62234697  0.70383878  1
loop_
_geom_bond_atom_site_label_1
_geom_bond_atom_site_label_2
_geom_bond_distance
_geom_bond_site_symmetry_2
H0 Mg5 1.983885 1_555
H0 Mg4 2.007221 1_545
H0 Mg2 2.009061 1_555
H0 Mg6 2.163572 1_555
H0 H1 2.362184 1_655
H0 H1 2.362184 1_555
H0 H4 2.379804 1_555
H0 H11 2.408066 1_545
H0 H15 2.589800 1_555
H0 H12 2.685959 1_555
H0 H9 2.690333 1_555
H1 Mg4 1.983885 1_445
H1 Mg5 2.007221 1_555
H1 Mg6 2.009061 1_555
H1 Mg2 2.163572 1_455
H1 H9 2.379804 1_455
H1 H3 2.408066 1_455
H1 H13 2.589800 1_545
H1 H14 2.685959 1_555
H1 H4 2.690333 1_555
H2 Mg3 1.983885 1_455
H2 Mg0 2.007221 1_565
H2 Mg1 2.009061 1_556
H2 Mg7 2.163572 1_456
H2 H8 2.379804 1_456
H2 H7 2.408066 1_466
H2 H5 2.690333 1_556
H3 Mg6 1.983885 1_665
H3 Mg2 2.007221 1_555
H3 Mg4 2.009061 1_555
H3 Mg5 2.163572 1_655
H3 H9 2.589800 1_565
H3 H8 2.685959 1_555
H4 Mg1 1.889562 1_555
H4 Mg6 1.950831 1_555
H4 Mg2 2.054704 1_555
H4 H5 2.582253 1_545
H4 H5 2.582253 1_555
H4 H6 2.685959 1_555
H5 Mg6 1.889562 1_565
H5 Mg1 1.950831 1_555
H5 Mg7 2.054704 1_555
H5 H6 2.589800 1_565
H6 Mg7 1.983885 1_545
H6 Mg1 2.007221 1_555
H6 Mg0 2.009061 1_554
H6 Mg3 2.163572 1_554
H6 H7 2.362184 1_455
H6 H7 2.362184 1_555
H7 Mg1 1.983885 1_655
H7 Mg7 2.007221 1_545
H7 Mg3 2.009061 1_554
H7 Mg0 2.163572 1_654
H7 H8 2.589800 1_555
H7 H9 2.685959 1_555
H8 Mg2 1.889562 1_555
H8 Mg7 1.950831 1_555
H8 Mg1 2.054704 1_655
H8 H9 2.582253 1_565
H8 H9 2.582253 1_555
H9 Mg7 1.889562 1_545
H9 Mg2 1.950831 1_555
H9 Mg6 2.054704 1_655
H10 Mg0 1.983885 1_565
H10 Mg3 2.007221 1_555
H10 Mg7 2.009061 1_556
H10 Mg1 2.163572 1_556
H10 H2 2.362184 1_655
H10 H2 2.362184 1_555
H10 H5 2.379804 1_556
H10 H6 2.408066 1_556
H10 H12 2.589800 1_565
H10 H15 2.685959 1_555
H10 H8 2.690333 1_556
H11 Mg2 1.983885 1_555
H11 Mg6 2.007221 1_565
H11 Mg5 2.009061 1_555
H11 Mg4 2.163572 1_555
H11 H3 2.362184 1_455
H11 H3 2.362184 1_555
H11 H15 2.379804 1_555
H11 H4 2.589800 1_555
H11 H5 2.685959 1_555
H11 H13 2.690333 1_555
H12 Mg4 1.889562 1_545
H12 Mg3 1.950831 1_555
H12 Mg0 2.054704 1_555
H12 H6 2.379804 1_556
H12 H15 2.582253 1_545
H12 H15 2.582253 1_555
H12 H7 2.690333 1_556
H13 Mg0 1.889562 1_565
H13 Mg5 1.950831 1_555
H13 Mg4 2.054704 1_455
H13 H3 2.379804 1_455
H13 H14 2.582253 1_565
H13 H14 2.582253 1_555
H13 H2 2.685959 1_555
H14 Mg5 1.889562 1_555
H14 Mg0 1.950831 1_555
H14 Mg3 2.054704 1_455
H14 H7 2.379804 1_456
H14 H2 2.589800 1_555
H14 H6 2.690333 1_556
H15 Mg3 1.889562 1_555
H15 Mg4 1.950831 1_555
H15 Mg5 2.054704 1_555
H15 H3 2.690333 1_555
