# generated using pymatgen
data_Ba2Cu7(AsO4)6
_symmetry_space_group_name_H-M   'P 1'
_cell_length_a   5.31412800
_cell_length_b   8.58294382
_cell_length_c   11.57883765
_cell_angle_alpha   89.50354759
_cell_angle_beta   89.11804611
_cell_angle_gamma   85.94023228
_symmetry_Int_Tables_number   1
_chemical_formula_structural   Ba2Cu7(AsO4)6
_chemical_formula_sum   'Ba2 Cu7 As6 O24'
_cell_volume   526.71797487
_cell_formula_units_Z   1
loop_
 _symmetry_equiv_pos_site_id
 _symmetry_equiv_pos_as_xyz
  1  'x, y, z'
loop_
 _atom_site_type_symbol
 _atom_site_label
 _atom_site_symmetry_multiplicity
 _atom_site_fract_x
 _atom_site_fract_y
 _atom_site_fract_z
 _atom_site_occupancy
  Ba  Ba0  1  0.99733700  0.55105000  0.82521700  1
  Ba  Ba1  1  0.00266300  0.44895000  0.17478300  1
  Cu  Cu0  1  0.45886500  0.08128200  0.18255800  1
  Cu  Cu1  1  0.50000000  0.00000000  0.50000000  1
  Cu  Cu2  1  0.47579100  0.72909800  0.33322200  1
  Cu  Cu3  1  0.52420900  0.27090200  0.66677800  1
  Cu  Cu4  1  0.54113500  0.91871800  0.81744200  1
  Cu  Cu5  1  0.00000000  0.00000000  0.00000000  1
  Cu  Cu6  1  0.00000000  0.50000000  0.50000000  1
  As  As0  1  0.52390200  0.33866400  0.38971200  1
  As  As1  1  0.97661700  0.92509500  0.27774400  1
  As  As2  1  0.53870500  0.26145100  0.94424800  1
  As  As3  1  0.47609800  0.66133600  0.61028800  1
  As  As4  1  0.02338300  0.07490500  0.72225600  1
  As  As5  1  0.46129500  0.73854900  0.05575200  1
  O  O0  1  0.69881900  0.50277400  0.39853900  1
  O  O1  1  0.87964500  0.26296500  0.72073700  1
  O  O2  1  0.82179000  0.98712900  0.14862200  1
  O  O3  1  0.23553100  0.62145200  0.01529200  1
  O  O4  1  0.31323300  0.24152100  0.04908700  1
  O  O5  1  0.39674500  0.33019000  0.81739600  1
  O  O6  1  0.60628800  0.25721100  0.25883600  1
  O  O7  1  0.69171300  0.07472200  0.91458100  1
  O  O8  1  0.30828700  0.92527800  0.08541900  1
  O  O9  1  0.61597200  0.21262300  0.50373200  1
  O  O10  1  0.72184500  0.90764600  0.37318000  1
  O  O11  1  0.19176900  0.05719800  0.31115300  1
  O  O12  1  0.20696800  0.39467500  0.38468600  1
  O  O13  1  0.39371200  0.74278900  0.74116400  1
  O  O14  1  0.38402800  0.78737700  0.49626800  1
  O  O15  1  0.27815500  0.09235400  0.62682000  1
  O  O16  1  0.17821000  0.01287100  0.85137800  1
  O  O17  1  0.60325500  0.66981000  0.18260400  1
  O  O18  1  0.76446900  0.37854800  0.98470800  1
  O  O19  1  0.30118100  0.49722600  0.60146100  1
  O  O20  1  0.80823100  0.94280200  0.68884700  1
  O  O21  1  0.79303200  0.60532500  0.61531400  1
  O  O22  1  0.68676700  0.75847900  0.95091300  1
  O  O23  1  0.12035500  0.73703500  0.27926300  1
loop_
_geom_bond_atom_site_label_1
_geom_bond_atom_site_label_2
_geom_bond_distance
_geom_bond_site_symmetry_2
Ba0 O3 2.651074 1_656
Ba0 O18 2.697324 1_555
Ba0 O21 2.700511 1_555
Ba0 O5 2.744812 1_655
Ba0 O22 2.750752 1_555
Ba0 O1 2.874475 1_555
Ba0 O13 2.914155 1_655
Ba0 O19 3.052757 1_655
Ba1 O18 2.651074 1_454
Ba1 O3 2.697324 1_555
Ba1 O12 2.700511 1_555
Ba1 O17 2.744812 1_455
Ba1 O4 2.750752 1_555
Ba1 O23 2.874475 1_555
Ba1 O6 2.914155 1_455
Ba1 O0 3.052757 1_455
Cu0 O6 1.971242 1_555
Cu0 O8 1.975790 1_545
Cu0 O11 2.060482 1_555
Cu0 O2 2.070881 1_545
Cu0 O4 2.174420 1_555
Cu1 O9 1.968118 1_555
Cu1 O14 1.968118 1_545
Cu1 O15 2.002249 1_555
Cu1 O10 2.002249 1_545
Cu2 O17 1.920791 1_555
Cu2 O23 1.995007 1_555
Cu2 O14 2.001396 1_555
Cu2 O10 2.141699 1_555
Cu2 O0 2.329428 1_555
Cu3 O5 1.920791 1_555
Cu3 O1 1.995007 1_555
Cu3 O9 2.001396 1_555
Cu3 O15 2.141699 1_555
Cu3 O19 2.329428 1_555
Cu4 O13 1.971242 1_555
Cu4 O7 1.975790 1_565
Cu4 O20 2.060482 1_555
Cu4 O16 2.070881 1_565
Cu4 O22 2.174420 1_555
Cu5 O16 1.957502 1_554
Cu5 O2 1.957502 1_445
Cu5 O7 1.990880 1_454
Cu5 O8 1.990880 1_545
Cu6 O12 1.909079 1_555
Cu6 O21 1.909079 1_455
Cu6 O19 1.998593 1_555
Cu6 O0 1.998593 1_455
As0 O6 1.712144 1_555
As0 O12 1.720177 1_555
As0 O0 1.746220 1_555
As0 O9 1.752955 1_555
As1 O11 1.716750 1_665
As1 O23 1.736219 1_655
As1 O10 1.748240 1_555
As1 O2 1.777007 1_555
As2 O18 1.692672 1_555
As2 O4 1.708551 1_556
As2 O5 1.740871 1_555
As2 O7 1.778808 1_555
As3 O13 1.712144 1_555
As3 O21 1.720177 1_555
As3 O19 1.746220 1_555
As3 O14 1.752955 1_555
As4 O20 1.716750 1_445
As4 O1 1.736219 1_455
As4 O15 1.748240 1_555
As4 O16 1.777007 1_555
As5 O3 1.692672 1_555
As5 O22 1.708551 1_554
As5 O17 1.740871 1_555
As5 O8 1.778808 1_555
