# generated using pymatgen
data_Ba2(IrO3)3
_symmetry_space_group_name_H-M   'P 1'
_cell_length_a   8.22038261
_cell_length_b   8.22042569
_cell_length_c   8.22041846
_cell_angle_alpha   109.46866139
_cell_angle_beta   109.46877419
_cell_angle_gamma   109.47608903
_symmetry_Int_Tables_number   1
_chemical_formula_structural   Ba2(IrO3)3
_chemical_formula_sum   'Ba4 Ir6 O18'
_cell_volume   427.62108283
_cell_formula_units_Z   2
loop_
 _symmetry_equiv_pos_site_id
 _symmetry_equiv_pos_as_xyz
  1  'x, y, z'
loop_
 _atom_site_type_symbol
 _atom_site_label
 _atom_site_symmetry_multiplicity
 _atom_site_fract_x
 _atom_site_fract_y
 _atom_site_fract_z
 _atom_site_occupancy
  Ba  Ba0  1  -0.00000464  -0.00005826  0.37793287  1
  Ba  Ba1  1  0.00001042  0.37797464  0.00005950  1
  Ba  Ba2  1  0.62202850  0.62206698  0.62203360  1
  Ba  Ba3  1  0.37791944  -0.00001397  -0.00003768  1
  Ir  Ir0  1  0.34353512  0.50001123  0.84353318  1
  Ir  Ir1  1  0.84354592  0.34356663  0.49998302  1
  Ir  Ir2  1  0.49997231  0.15640985  0.65644198  1
  Ir  Ir3  1  0.15646494  0.65648019  0.49998071  1
  Ir  Ir4  1  0.49996927  0.84351747  0.34355616  1
  Ir  Ir5  1  0.65649907  0.50001446  0.15650594  1
  O  O0  1  0.35846126  -0.00005700  0.35850270  1
  O  O1  1  0.35857065  0.35854844  0.00005063  1
  O  O2  1  0.00004352  0.64151488  0.64141161  1
  O  O3  1  0.64154672  0.64151229  0.00004296  1
  O  O4  1  0.00005335  0.35862179  0.35852280  1
  O  O5  1  0.64146356  -0.00005968  0.64150076  1
  O  O6  1  0.35917052  0.31000083  0.63813075  1
  O  O7  1  0.04917568  0.32814327  0.68996272  1
  O  O8  1  0.72103565  0.36185655  0.67186544  1
  O  O9  1  0.36181292  0.67186125  0.72099234  1
  O  O10  1  0.27893453  0.95075563  0.64077580  1
  O  O11  1  0.63818582  0.35922962  0.31002345  1
  O  O12  1  0.30997042  0.63816320  0.35920949  1
  O  O13  1  0.68997181  0.04914616  0.32811227  1
  O  O14  1  0.95084661  0.64081765  0.27901093  1
  O  O15  1  0.67186322  0.72101774  0.36186307  1
  O  O16  1  0.64082989  0.27897131  0.95085838  1
  O  O17  1  0.32812152  0.68998484  0.04917363  1
loop_
_geom_bond_atom_site_label_1
_geom_bond_atom_site_label_2
_geom_bond_distance
_geom_bond_site_symmetry_2
Ba0 O14 2.631565 1_445
Ba0 O6 2.631944 1_555
Ba0 O13 2.632169 1_455
Ba0 O15 2.826122 1_445
Ba0 O10 2.826277 1_545
Ba0 O7 2.826693 1_555
Ba0 O3 3.003619 1_445
Ba0 O0 3.003736 1_555
Ba0 O4 3.005302 1_555
Ba1 O12 2.631660 1_555
Ba1 O16 2.631725 1_454
Ba1 O7 2.632542 1_554
Ba1 O17 2.826156 1_555
Ba1 O14 2.826223 1_455
Ba1 O8 2.826699 1_454
Ba1 O4 3.003380 1_555
Ba1 O1 3.004543 1_555
Ba1 O5 3.004630 1_454
Ba2 O15 2.631540 1_555
Ba2 O9 2.631874 1_555
Ba2 O8 2.632191 1_555
Ba2 O6 2.826297 1_555
Ba2 O12 2.826362 1_555
Ba2 O11 2.826463 1_555
Ba2 O5 3.003462 1_565
Ba2 O3 3.004439 1_556
Ba2 O2 3.004803 1_655
Ba3 O10 2.631820 1_544
Ba3 O17 2.631960 1_545
Ba3 O11 2.632375 1_555
Ba3 O16 2.826107 1_554
Ba3 O9 2.826360 1_544
Ba3 O13 2.826607 1_555
Ba3 O2 3.003920 1_544
Ba3 O1 3.004087 1_555
Ba3 O0 3.004560 1_555
Ir0 O17 1.956393 1_556
Ir0 O6 1.956471 1_555
Ir0 O7 1.984979 1_555
Ir0 O9 1.985169 1_555
Ir0 O1 2.002549 1_556
Ir0 O3 2.002744 1_556
Ir1 O11 1.956167 1_555
Ir1 O7 1.956408 1_655
Ir1 O8 1.985224 1_555
Ir1 O13 1.985400 1_555
Ir1 O2 2.002333 1_655
Ir1 O4 2.002449 1_655
Ir2 O10 1.956192 1_545
Ir2 O8 1.956476 1_555
Ir2 O6 1.985317 1_555
Ir2 O16 1.985438 1_555
Ir2 O0 2.002333 1_555
Ir2 O5 2.002466 1_555
Ir3 O14 1.955880 1_455
Ir3 O9 1.956142 1_555
Ir3 O10 1.984439 1_555
Ir3 O12 1.984448 1_555
Ir3 O2 2.001646 1_555
Ir3 O4 2.001692 1_555
Ir4 O12 1.956086 1_555
Ir4 O13 1.956433 1_565
Ir4 O17 1.985220 1_555
Ir4 O15 1.985315 1_555
Ir4 O0 2.002285 1_565
Ir4 O5 2.002360 1_565
Ir5 O15 1.956220 1_555
Ir5 O16 1.956360 1_554
Ir5 O11 1.984598 1_555
Ir5 O14 1.984884 1_555
Ir5 O1 2.002180 1_555
Ir5 O3 2.002391 1_555
O0 O10 2.726803 1_545
O0 O13 2.727376 1_555
O0 O17 2.802682 1_545
O0 O6 2.802864 1_555
O1 O16 2.726973 1_554
O1 O17 2.727202 1_555
O1 O11 2.802487 1_555
O1 O7 2.803319 1_554
O2 O9 2.726512 1_555
O2 O8 2.803292 1_455
O3 O6 2.727606 1_554
O3 O9 2.803555 1_554
O4 O7 2.727317 1_555
O5 O8 2.727616 1_555
O10 O2 2.801574 1_555
O11 O2 2.726889 1_655
O12 O5 2.726837 1_565
O12 O4 2.801605 1_555
O13 O4 2.803397 1_655
O14 O4 2.726234 1_655
O14 O3 2.802737 1_555
O15 O3 2.727142 1_555
O15 O5 2.802769 1_565
O16 O5 2.803028 1_555
