# generated using pymatgen
data_Li3Bi(PO4)2
_symmetry_space_group_name_H-M   'P 1'
_cell_length_a   8.54030964
_cell_length_b   8.54030964
_cell_length_c   7.56635700
_cell_angle_alpha   90.00000000
_cell_angle_beta   90.00000000
_cell_angle_gamma   119.99999721
_symmetry_Int_Tables_number   1
_chemical_formula_structural   Li3Bi(PO4)2
_chemical_formula_sum   'Li9 Bi3 P6 O24'
_cell_volume   477.93045544
_cell_formula_units_Z   3
loop_
 _symmetry_equiv_pos_site_id
 _symmetry_equiv_pos_as_xyz
  1  'x, y, z'
loop_
 _atom_site_type_symbol
 _atom_site_label
 _atom_site_symmetry_multiplicity
 _atom_site_fract_x
 _atom_site_fract_y
 _atom_site_fract_z
 _atom_site_occupancy
  Li  Li0  1  0.65433300  0.97876900  0.87044700  1
  Li  Li1  1  0.97876900  0.32443500  0.12955300  1
  Li  Li2  1  0.33333300  0.66666700  0.01618000  1
  Li  Li3  1  0.32443500  0.34566700  0.87044700  1
  Li  Li4  1  0.67556500  0.65433300  0.12955300  1
  Li  Li5  1  0.02123100  0.67556500  0.87044700  1
  Li  Li6  1  0.66666700  0.33333300  0.98382000  1
  Li  Li7  1  0.34566700  0.02123100  0.12955300  1
  Li  Li8  1  0.00000000  0.00000000  0.00000000  1
  Bi  Bi0  1  0.00000000  0.00000000  0.50000000  1
  Bi  Bi1  1  0.33333300  0.66666700  0.55083400  1
  Bi  Bi2  1  0.66666700  0.33333300  0.44916600  1
  P  P0  1  0.33470600  0.02587800  0.74871000  1
  P  P1  1  0.97412200  0.30882800  0.74871000  1
  P  P2  1  0.02587800  0.69117200  0.25129000  1
  P  P3  1  0.30882800  0.33470600  0.25129000  1
  P  P4  1  0.66529400  0.97412200  0.25129000  1
  P  P5  1  0.69117200  0.66529400  0.74871000  1
  O  O0  1  0.58562900  0.10514800  0.23798700  1
  O  O1  1  0.25334000  0.42318000  0.10492800  1
  O  O2  1  0.12699600  0.91507000  0.77589800  1
  O  O3  1  0.10514800  0.51951900  0.76201300  1
  O  O4  1  0.21192500  0.12699600  0.22410200  1
  O  O5  1  0.42318000  0.16984000  0.89507200  1
  O  O6  1  0.11443900  0.74471900  0.43707600  1
  O  O7  1  0.88556100  0.25528100  0.56292400  1
  O  O8  1  0.87300400  0.08493000  0.22410200  1
  O  O9  1  0.36971900  0.11443900  0.56292400  1
  O  O10  1  0.48048100  0.58562900  0.76201300  1
  O  O11  1  0.91507000  0.78807500  0.22410200  1
  O  O12  1  0.74666000  0.57682000  0.89507200  1
  O  O13  1  0.74471900  0.63028100  0.56292400  1
  O  O14  1  0.83016000  0.25334000  0.89507200  1
  O  O15  1  0.89485200  0.48048100  0.23798700  1
  O  O16  1  0.51951900  0.41437100  0.23798700  1
  O  O17  1  0.41437100  0.89485200  0.76201300  1
  O  O18  1  0.08493000  0.21192500  0.77589800  1
  O  O19  1  0.63028100  0.88556100  0.43707600  1
  O  O20  1  0.57682000  0.83016000  0.10492800  1
  O  O21  1  0.78807500  0.87300400  0.77589800  1
  O  O22  1  0.16984000  0.74666000  0.10492800  1
  O  O23  1  0.25528100  0.36971900  0.43707600  1
loop_
_geom_bond_atom_site_label_1
_geom_bond_atom_site_label_2
_geom_bond_distance
_geom_bond_site_symmetry_2
Li0 O21 1.914158 1_555
Li0 O17 1.979363 1_555
Li0 O14 2.065684 1_565
Li0 O20 2.087225 1_556
Li1 O8 1.914143 1_555
Li1 O15 1.979370 1_555
Li1 O1 2.065683 1_655
Li1 O14 2.087225 1_554
Li2 O22 1.954767 1_555
Li2 O20 1.954774 1_555
Li2 O1 1.954775 1_555
Li2 O17 2.574171 1_554
Li2 O3 2.574172 1_554
Li2 O10 2.574176 1_554
Li3 O18 1.914144 1_555
Li3 O10 1.979364 1_555
Li3 O5 2.065691 1_555
Li3 O1 2.087221 1_556
Li4 O11 1.914144 1_555
Li4 O16 1.979364 1_555
Li4 O20 2.065691 1_555
Li4 O12 2.087221 1_554
Li5 O2 1.914143 1_555
Li5 O3 1.979370 1_555
Li5 O12 2.065683 1_455
Li5 O22 2.087225 1_556
Li6 O14 1.954767 1_555
Li6 O5 1.954774 1_555
Li6 O12 1.954775 1_555
Li6 O0 2.574171 1_556
Li6 O15 2.574172 1_556
Li6 O16 2.574176 1_556
Li7 O4 1.914158 1_555
Li7 O0 1.979363 1_555
Li7 O22 2.065684 1_545
Li7 O5 2.087225 1_554
Li8 O18 2.316088 1_554
Li8 O11 2.316088 1_445
Li8 O21 2.316089 1_444
Li8 O4 2.316089 1_555
Li8 O2 2.316093 1_544
Li8 O8 2.316093 1_455
Bi0 O18 2.616661 1_555
Bi0 O11 2.616661 1_445
Bi0 O21 2.616662 1_445
Bi0 O4 2.616662 1_555
Bi0 O2 2.616666 1_545
Bi0 O8 2.616666 1_455
Bi0 O9 2.840035 1_555
Bi0 O19 2.840035 1_445
Bi0 O23 2.840037 1_555
Bi0 O13 2.840037 1_445
Bi0 O6 2.840043 1_545
Bi0 O7 2.840043 1_455
Bi1 O17 2.341178 1_555
Bi1 O3 2.341179 1_555
Bi1 O10 2.341184 1_555
Bi1 O6 2.434354 1_555
Bi1 O19 2.434365 1_555
Bi1 O23 2.434369 1_555
Bi2 O0 2.341178 1_555
Bi2 O15 2.341179 1_555
Bi2 O16 2.341184 1_555
Bi2 O7 2.434354 1_555
Bi2 O9 2.434365 1_555
Bi2 O13 2.434369 1_555
O0 P4 1.576871 1_545
O1 P3 1.542709 1_555
O2 P0 1.551098 1_565
O3 P1 1.576871 1_455
O4 P3 1.551098 1_555
O5 P0 1.542709 1_555
O6 P2 1.552854 1_555
O7 P1 1.552854 1_555
O8 P4 1.551098 1_545
O9 P0 1.552855 1_555
O10 P5 1.576871 1_555
O11 P2 1.551105 1_655
O12 P5 1.542709 1_555
O13 P5 1.552851 1_555
O14 P1 1.542709 1_555
O15 P2 1.576871 1_655
O16 P3 1.576871 1_555
O17 P0 1.576871 1_565
O18 P1 1.551105 1_455
O19 P4 1.552855 1_555
O20 P4 1.542709 1_555
O21 P5 1.551098 1_555
O22 P2 1.542709 1_555
O23 P3 1.552851 1_555
