# generated using pymatgen
data_YAl6Si30(N15O)3
_symmetry_space_group_name_H-M   'P 1'
_cell_length_a   7.86778100
_cell_length_b   7.88304542
_cell_length_c   17.12646181
_cell_angle_alpha   90.28235966
_cell_angle_beta   89.90191460
_cell_angle_gamma   119.55043271
_symmetry_Int_Tables_number   1
_chemical_formula_structural   YAl6Si30(N15O)3
_chemical_formula_sum   'Y1 Al6 Si30 N45 O3'
_cell_volume   924.03579269
_cell_formula_units_Z   1
loop_
 _symmetry_equiv_pos_site_id
 _symmetry_equiv_pos_as_xyz
  1  'x, y, z'
loop_
 _atom_site_type_symbol
 _atom_site_label
 _atom_site_symmetry_multiplicity
 _atom_site_fract_x
 _atom_site_fract_y
 _atom_site_fract_z
 _atom_site_occupancy
  Y  Y0  1  0.67595500  0.34615700  0.27162000  1
  Al  Al0  1  0.09639700  0.51479400  0.28244300  1
  Al  Al1  1  0.91604000  0.43258600  0.44939300  1
  Al  Al2  1  0.92510300  0.43220200  0.10725000  1
  Al  Al3  1  0.91350900  0.74771600  0.68028800  1
  Al  Al4  1  0.92298400  0.75391000  0.34969200  1
  Al  Al5  1  0.91406900  0.74805500  0.01304700  1
  Si  Si0  1  0.16931100  0.24107400  0.84841100  1
  Si  Si1  1  0.16872900  0.24158600  0.51948900  1
  Si  Si2  1  0.17049400  0.24182800  0.18146400  1
  Si  Si3  1  0.08318900  0.51722100  0.94516700  1
  Si  Si4  1  0.08786300  0.51929000  0.61609800  1
  Si  Si5  1  0.08900700  0.82859100  0.84679900  1
  Si  Si6  1  0.08865500  0.82813300  0.51475600  1
  Si  Si7  1  0.07883700  0.82260100  0.18030000  1
  Si  Si8  1  0.48641200  0.56852100  0.94425300  1
  Si  Si9  1  0.48876400  0.56830500  0.61306500  1
  Si  Si10  1  0.48647800  0.57982600  0.27996000  1
  Si  Si11  1  0.42886500  0.91811000  0.94338900  1
  Si  Si12  1  0.43115300  0.91940400  0.61228700  1
  Si  Si13  1  0.42638300  0.91499500  0.27867200  1
  Si  Si14  1  0.25298700  0.16770700  0.68280100  1
  Si  Si15  1  0.24680600  0.17298400  0.35142600  1
  Si  Si16  1  0.24867400  0.16815700  0.01427600  1
  Si  Si17  1  0.51455000  0.08418300  0.77858400  1
  Si  Si18  1  0.51318400  0.08354100  0.44865200  1
  Si  Si19  1  0.50781600  0.07992800  0.11034700  1
  Si  Si20  1  0.74459100  0.90951500  0.84764900  1
  Si  Si21  1  0.74552900  0.91060200  0.51664400  1
  Si  Si22  1  0.74796200  0.91750800  0.17993600  1
  Si  Si23  1  0.83651400  0.08863400  0.68199900  1
  Si  Si24  1  0.83119900  0.08543100  0.35062700  1
  Si  Si25  1  0.83561800  0.08957000  0.01154800  1
  Si  Si26  1  0.56865700  0.48811700  0.77781800  1
  Si  Si27  1  0.56535900  0.48935500  0.10936800  1
  Si  Si28  1  0.56311900  0.48394200  0.44770600  1
  Si  Si29  1  0.91360300  0.43395800  0.77581500  1
  N  N0  1  0.00638600  0.01404100  0.68141800  1
  N  N1  1  0.00350900  0.01548200  0.34728300  1
  N  N2  1  0.30968000  0.31987900  0.93234600  1
  N  N3  1  0.31657000  0.31923800  0.60093100  1
  N  N4  1  0.32459300  0.32362400  0.26606300  1
  N  N5  1  0.00727900  0.68058800  0.92677000  1
  N  N6  1  0.00664100  0.67734000  0.59482200  1
  N  N7  1  0.98386800  0.66479900  0.25907100  1
  N  N8  1  0.33181800  0.66642100  0.95830400  1
  N  N9  1  0.33584400  0.66800100  0.62753800  1
  N  N10  1  0.34790500  0.68049700  0.30275500  1
  N  N11  1  0.99805000  0.99770100  0.18317500  1
  N  N12  1  0.60840400  0.65512800  0.52142900  1
  N  N13  1  0.60907000  0.65381900  0.85397000  1
  N  N14  1  0.60920500  0.65683300  0.18889900  1
  N  N15  1  0.34759800  0.96129600  0.85383600  1
  N  N16  1  0.34663800  0.95907500  0.52248900  1
  N  N17  1  0.34404700  0.95919900  0.18983900  1
  N  N18  1  0.39137500  0.04652000  0.68835700  1
  N  N19  1  0.40137500  0.06283500  0.35254600  1
  N  N20  1  0.39198800  0.04982500  0.01997100  1
  N  N21  1  0.31847100  0.31262700  0.76822200  1
  N  N22  1  0.30889100  0.31852000  0.43521200  1
  N  N23  1  0.31642400  0.31296200  0.10036100  1
  N  N24  1  0.67741900  0.98938200  0.93226600  1
  N  N25  1  0.68178200  0.99586000  0.60054900  1
  N  N26  1  0.68117000  0.01030700  0.26424900  1
  N  N27  1  0.69050300  0.00944300  0.76695600  1
  N  N28  1  0.68913800  0.01157800  0.09902800  1
  N  N29  1  0.68309500  0.00057300  0.43433500  1
  N  N30  1  0.66750900  0.33386700  0.79680700  1
  N  N31  1  0.65252600  0.32881500  0.46612200  1
  N  N32  1  0.65696800  0.33045100  0.13671900  1
  N  N33  1  0.99786600  0.99551100  0.84782700  1
  N  N34  1  0.00341200  0.01295500  0.01414200  1
  N  N35  1  0.64372400  0.58684000  0.35291000  1
  N  N36  1  0.64325100  0.60278800  0.68895800  1
  N  N37  1  0.64069900  0.60016300  0.02093800  1
  N  N38  1  0.95489900  0.34686000  0.68782200  1
  N  N39  1  0.92590100  0.33284400  0.35048500  1
  N  N40  1  0.95122000  0.34110000  0.01188100  1
  N  N41  1  0.00684200  0.67832200  0.76733700  1
  N  N42  1  0.00969300  0.68861600  0.09891600  1
  N  N43  1  0.01596200  0.69081100  0.43372400  1
  N  N44  1  0.99809300  0.99658400  0.51633400  1
  O  O0  1  0.04413000  0.38287300  0.85163300  1
  O  O1  1  0.04810000  0.37751900  0.52850100  1
  O  O2  1  0.05277200  0.37498500  0.18758500  1
loop_
_geom_bond_atom_site_label_1
_geom_bond_atom_site_label_2
_geom_bond_distance
_geom_bond_site_symmetry_2
Al0 N10 1.786408 1_555
Al0 N39 1.824270 1_455
Al0 N7 1.838727 1_455
Al0 O2 1.892849 1_555
Al1 N43 1.805513 1_655
Al1 N31 1.837686 1_555
Al1 N39 1.881564 1_555
Al1 O1 1.886557 1_655
Al2 N42 1.795727 1_655
Al2 N40 1.832650 1_555
Al2 O2 1.887622 1_655
Al2 N32 1.918299 1_555
Al3 N6 1.837523 1_655
Al3 N0 1.851607 1_665
Al3 N36 1.858220 1_555
Al3 N41 1.862553 1_655
Al4 N43 1.795368 1_655
Al4 N1 1.834949 1_665
Al4 N7 1.857498 1_555
Al4 N35 1.926420 1_555
Al5 N42 1.818416 1_655
Al5 N5 1.837742 1_654
Al5 N34 1.845779 1_665
Al5 N37 1.879005 1_555
N0 Si23 1.705060 1_455
N0 Si14 1.707027 1_555
N1 Si15 1.692951 1_555
N1 Si24 1.697656 1_455
N2 Si0 1.729722 1_555
N2 Si16 1.754350 1_556
N2 Si8 1.767932 1_555
N3 Si1 1.722793 1_555
N3 Si14 1.751523 1_555
N3 Si9 1.762604 1_555
N4 Si2 1.791834 1_555
N4 Si10 1.793557 1_555
N4 Si15 1.794226 1_555
N4 Y0 2.683116 1_555
N5 Si3 1.696405 1_555
N5 Si5 1.709763 1_555
N6 Si4 1.698252 1_555
N6 Si6 1.722256 1_555
N7 Si7 1.738388 1_655
N7 Y0 2.495160 1_555
N8 Si3 1.729164 1_555
N8 Si8 1.748140 1_555
N8 Si11 1.759216 1_555
N9 Si4 1.721128 1_555
N9 Si9 1.748250 1_555
N9 Si12 1.759747 1_555
N10 Si10 1.679227 1_555
N10 Si13 1.687996 1_555
N11 Si2 1.723415 1_665
N11 Si22 1.745682 1_555
N11 Si7 1.782229 1_655
N12 Si28 1.747195 1_555
N12 Si21 1.756329 1_555
N12 Si9 1.785374 1_555
N13 Si26 1.755928 1_555
N13 Si20 1.758788 1_555
N13 Si8 1.771819 1_555
N14 Si10 1.777379 1_555
N14 Si22 1.796604 1_555
N14 Si27 1.803316 1_555
N15 Si17 1.753912 1_565
N15 Si11 1.760751 1_555
N15 Si5 1.774388 1_555
N16 Si18 1.737017 1_565
N16 Si12 1.765931 1_555
N16 Si6 1.770841 1_555
N17 Si13 1.756979 1_555
N17 Si19 1.793496 1_565
N17 Si7 1.822997 1_555
N18 Si12 1.759108 1_545
N18 Si17 1.769741 1_555
N18 Si14 1.770435 1_555
N19 Si13 1.791220 1_545
N19 Si15 1.809721 1_555
N19 Si18 1.835849 1_555
N19 Y0 2.614810 1_555
N20 Si19 1.752269 1_555
N20 Si11 1.779030 1_544
N20 Si16 1.786005 1_555
N21 Si0 1.711923 1_555
N21 Si14 1.765315 1_555
N21 Si26 1.768699 1_555
N22 Si1 1.735136 1_555
N22 Si15 1.745660 1_555
N22 Si28 1.781300 1_555
N23 Si2 1.711486 1_555
N23 Si27 1.762359 1_555
N23 Si16 1.773906 1_555
N24 Si25 1.744200 1_566
N24 Si11 1.758474 1_555
N24 Si20 1.758533 1_555
N25 Si23 1.755094 1_565
N25 Si21 1.757476 1_555
N25 Si12 1.766235 1_555
N26 Si13 1.777213 1_545
N26 Si24 1.800096 1_555
N26 Si22 1.806260 1_545
N26 Y0 2.670360 1_555
N27 Si20 1.747830 1_545
N27 Si17 1.762291 1_555
N27 Si23 1.767010 1_555
N28 Si22 1.742135 1_545
N28 Si19 1.766154 1_555
N28 Si25 1.804196 1_555
N29 Si21 1.757084 1_545
N29 Si24 1.759383 1_555
N29 Si18 1.770511 1_555
N30 Si29 1.730387 1_555
N30 Si17 1.754584 1_555
N30 Si26 1.768276 1_555
N31 Si18 1.713019 1_555
N31 Si28 1.715451 1_555
N32 Si19 1.785589 1_555
N32 Si27 1.790403 1_555
N32 Y0 2.314218 1_555
N33 Si0 1.729488 1_665
N33 Si20 1.760112 1_555
N33 Si5 1.782238 1_655
N34 Si16 1.700516 1_555
N34 Si25 1.701914 1_455
N35 Si10 1.741189 1_555
N35 Si28 1.788299 1_555
N35 Y0 2.459613 1_555
N36 Si9 1.707837 1_555
N36 Si26 1.721869 1_555
N37 Si27 1.705081 1_555
N37 Si8 1.721684 1_554
N38 Si29 1.748206 1_555
N38 Si4 1.749393 1_655
N38 Si23 1.774633 1_555
N39 Si24 1.710477 1_555
N39 Y0 2.432408 1_555
N40 Si3 1.703168 1_654
N40 Si25 1.726238 1_555
N41 Si29 1.696614 1_455
N41 Si5 1.704395 1_555
N42 Si7 1.666008 1_555
N43 Si6 1.673956 1_555
N44 Si1 1.725424 1_665
N44 Si21 1.754866 1_555
N44 Si6 1.790142 1_655
O0 Si0 1.818707 1_555
O0 Si29 1.822237 1_455
O0 Si3 1.856370 1_555
O1 Si1 1.753241 1_555
O1 Si4 1.799379 1_555
O2 Si2 1.711215 1_555
