# generated using pymatgen
data_K(OsO3)2
_symmetry_space_group_name_H-M   'P 1'
_cell_length_a   7.18173346
_cell_length_b   7.18185445
_cell_length_c   7.18185604
_cell_angle_alpha   59.90841691
_cell_angle_beta   59.90794823
_cell_angle_gamma   59.90794629
_symmetry_Int_Tables_number   1
_chemical_formula_structural   K(OsO3)2
_chemical_formula_sum   'K2 Os4 O12'
_cell_volume   261.38535630
_cell_formula_units_Z   2
loop_
 _symmetry_equiv_pos_site_id
 _symmetry_equiv_pos_as_xyz
  1  'x, y, z'
loop_
 _atom_site_type_symbol
 _atom_site_label
 _atom_site_symmetry_multiplicity
 _atom_site_fract_x
 _atom_site_fract_y
 _atom_site_fract_z
 _atom_site_occupancy
  K  K0  1  0.71860058  0.71856885  0.71856930  1
  K  K1  1  0.46622640  0.46622311  0.46622293  1
  Os  Os0  1  0.12519947  0.12520135  0.62486062  1
  Os  Os1  1  0.62485549  0.12520566  0.12520552  1
  Os  Os2  1  0.12519953  0.62486091  0.12520124  1
  Os  Os3  1  0.12478540  0.12479571  0.12479577  1
  O  O0  1  0.19171524  0.81515158  0.81515148  1
  O  O1  1  0.81515734  0.19170647  0.81516075  1
  O  O2  1  0.81515704  0.81516053  0.19170670  1
  O  O3  1  0.19645271  0.19646050  0.80655333  1
  O  O4  1  0.06168734  0.44768190  0.44768172  1
  O  O5  1  0.44768321  0.06168961  0.44767794  1
  O  O6  1  0.80654442  0.19645924  0.19645936  1
  O  O7  1  0.19645265  0.80655334  0.19646052  1
  O  O8  1  0.06662980  0.06663423  0.43554113  1
  O  O9  1  0.44768321  0.44767808  0.06168953  1
  O  O10  1  0.43554203  0.06663192  0.06663182  1
  O  O11  1  0.06663014  0.43554099  0.06663433  1
loop_
_geom_bond_atom_site_label_1
_geom_bond_atom_site_label_2
_geom_bond_distance
_geom_bond_site_symmetry_2
K0 O4 2.796849 1_655
K0 O9 2.797048 1_556
K0 O5 2.797052 1_565
K0 O1 3.240164 1_555
K0 O2 3.240166 1_555
K0 O0 3.240218 1_555
K0 O8 3.564163 1_665
K0 O11 3.564163 1_656
K0 O10 3.564319 1_566
K1 O6 2.783492 1_555
K1 O7 2.783555 1_555
K1 O3 2.783556 1_555
K1 O4 3.044644 1_555
K1 O5 3.044673 1_555
K1 O9 3.044673 1_555
K1 O0 3.582622 1_555
K1 O2 3.582662 1_555
K1 O1 3.582666 1_555
O0 Os2 1.894906 1_556
O0 Os0 1.894906 1_565
O0 O9 2.681892 1_556
O0 O5 2.681893 1_565
O1 Os0 1.894844 1_655
O1 Os1 1.894886 1_556
O1 O9 2.681855 1_556
O1 O4 2.681905 1_655
O2 Os2 1.894845 1_655
O2 Os1 1.894887 1_565
O2 O5 2.681854 1_565
O2 O4 2.681903 1_655
O3 Os3 1.913123 1_556
O3 Os0 1.956624 1_555
O3 O4 2.630992 1_555
O3 O5 2.631024 1_555
O4 Os0 1.938714 1_555
O4 Os2 1.938714 1_555
O4 O7 2.630990 1_555
O5 Os1 1.938651 1_555
O5 Os0 1.938694 1_555
O5 O6 2.630910 1_555
O6 Os3 1.913077 1_655
O6 Os1 1.956560 1_555
O6 O9 2.630911 1_555
O6 O8 2.677847 1_655
O7 Os3 1.913122 1_565
O7 Os2 1.956622 1_555
O7 O9 2.631023 1_555
O7 O8 2.677837 1_565
O8 Os0 1.878019 1_555
O8 Os3 1.906566 1_555
O9 Os1 1.938650 1_555
O9 Os2 1.938694 1_555
O10 Os1 1.878016 1_555
O10 Os3 1.906581 1_555
O10 O3 2.677845 1_554
O10 O7 2.677845 1_545
O11 Os2 1.878019 1_555
O11 Os3 1.906565 1_555
O11 O3 2.677838 1_554
O11 O6 2.677849 1_455
