# generated using pymatgen
data_Sr3P4
_symmetry_space_group_name_H-M   'P 1'
_cell_length_a   11.31161380
_cell_length_b   9.21531294
_cell_length_c   7.76306671
_cell_angle_alpha   83.08159355
_cell_angle_beta   53.97351534
_cell_angle_gamma   42.94489111
_symmetry_Int_Tables_number   1
_chemical_formula_structural   Sr3P4
_chemical_formula_sum   'Sr6 P8'
_cell_volume   368.56788803
_cell_formula_units_Z   2
loop_
 _symmetry_equiv_pos_site_id
 _symmetry_equiv_pos_as_xyz
  1  'x, y, z'
loop_
 _atom_site_type_symbol
 _atom_site_label
 _atom_site_symmetry_multiplicity
 _atom_site_fract_x
 _atom_site_fract_y
 _atom_site_fract_z
 _atom_site_occupancy
  Sr  Sr0  1  0.57165000  0.09394100  0.41892900  1
  Sr  Sr1  1  0.91252500  0.42765700  0.09091000  1
  Sr  Sr2  1  0.82184200  0.34236500  0.68033700  1
  Sr  Sr3  1  0.16498200  0.67550200  0.32700900  1
  Sr  Sr4  1  0.50845400  0.99702000  0.98963400  1
  Sr  Sr5  1  0.25137500  0.75161500  0.75051900  1
  P  P0  1  0.08518900  0.41693900  0.58300400  1
  P  P1  1  0.92066000  0.57797200  0.42427200  1
  P  P2  1  0.66937300  0.33680000  0.17009700  1
  P  P3  1  0.82810100  0.16788200  0.32689300  1
  P  P4  1  0.51483000  0.82891900  0.66701200  1
  P  P5  1  0.99527400  0.65695800  0.81572900  1
  P  P6  1  0.41859100  0.73278700  0.26279500  1
  P  P7  1  0.59009900  0.25086200  0.72957800  1
loop_
_geom_bond_atom_site_label_1
_geom_bond_atom_site_label_2
_geom_bond_distance
_geom_bond_site_symmetry_2
P0 P5 2.167587 1_455
P0 P1 2.323374 1_455
P0 Sr0 3.074272 1_555
P0 Sr4 3.144059 1_455
P0 Sr1 3.181756 1_456
P0 Sr2 3.184524 1_455
P0 Sr3 3.215479 1_555
P0 Sr4 3.216080 1_544
P1 P4 2.303143 1_555
P1 Sr4 3.092857 1_555
P1 Sr2 3.132828 1_555
P1 Sr1 3.155136 1_555
P1 Sr3 3.167670 1_655
P1 Sr4 3.178544 1_644
P1 Sr0 3.295316 1_565
P2 P6 2.226539 1_555
P2 P3 2.269585 1_555
P2 Sr2 3.130768 1_554
P2 Sr5 3.146224 1_555
P2 Sr1 3.146809 1_555
P2 Sr0 3.167125 1_555
P2 Sr5 3.172208 1_644
P2 Sr3 3.232264 1_555
P3 P7 2.295000 1_555
P3 Sr5 3.115331 1_644
P3 Sr0 3.119025 1_555
P3 Sr3 3.130290 1_645
P3 Sr5 3.155780 1_555
P3 Sr1 3.198637 1_555
P3 Sr2 3.284292 1_555
P4 Sr4 3.039121 1_555
P4 Sr2 3.112781 1_555
P4 Sr0 3.129800 1_565
P4 Sr1 3.142684 1_555
P4 Sr5 3.245459 1_555
P4 Sr1 3.264461 1_466
P5 Sr4 2.996156 1_555
P5 Sr1 3.059551 1_556
P5 Sr0 3.101259 1_655
P5 Sr3 3.140903 1_655
P5 Sr0 3.317059 1_566
P5 Sr5 3.358176 1_655
P6 Sr5 3.032632 1_555
P6 Sr3 3.037809 1_555
P6 Sr2 3.134880 1_554
P6 Sr1 3.168206 1_555
P6 Sr2 3.280591 1_465
P6 Sr4 3.362045 1_554
P7 Sr5 3.092620 1_555
P7 Sr2 3.115855 1_555
P7 Sr3 3.126445 1_645
P7 Sr0 3.134390 1_555
P7 Sr4 3.198831 1_545
P7 Sr3 3.245833 1_556
