# generated using pymatgen
data_Tl2Pt(CN)4
_symmetry_space_group_name_H-M   'P 1'
_cell_length_a   7.39777200
_cell_length_b   6.33339500
_cell_length_c   10.05051470
_cell_angle_alpha   67.38287450
_cell_angle_beta   90.00000000
_cell_angle_gamma   90.00000000
_symmetry_Int_Tables_number   1
_chemical_formula_structural   Tl2Pt(CN)4
_chemical_formula_sum   'Tl4 Pt2 C8 N8'
_cell_volume   434.68270945
_cell_formula_units_Z   2
loop_
 _symmetry_equiv_pos_site_id
 _symmetry_equiv_pos_as_xyz
  1  'x, y, z'
loop_
 _atom_site_type_symbol
 _atom_site_label
 _atom_site_symmetry_multiplicity
 _atom_site_fract_x
 _atom_site_fract_y
 _atom_site_fract_z
 _atom_site_occupancy
  Tl  Tl0  1  0.65341100  0.68880500  0.58146200  1
  Tl  Tl1  1  0.15341100  0.31119500  0.91853800  1
  Tl  Tl2  1  0.34658900  0.31119500  0.41853800  1
  Tl  Tl3  1  0.84658900  0.68880500  0.08146200  1
  Pt  Pt0  1  0.00000000  0.00000000  0.50000000  1
  Pt  Pt1  1  0.50000000  0.00000000  0.00000000  1
  C  C0  1  0.65848500  0.27777100  0.93428000  1
  C  C1  1  0.99815000  0.00717400  0.29961800  1
  C  C2  1  0.49815000  0.99282600  0.20038200  1
  C  C3  1  0.84151500  0.27777100  0.43428000  1
  C  C4  1  0.00185000  0.99282600  0.70038200  1
  C  C5  1  0.34151500  0.72222900  0.06572000  1
  C  C6  1  0.15848500  0.72222900  0.56572000  1
  C  C7  1  0.50185000  0.00717400  0.79961800  1
  N  N0  1  0.00640000  0.01540600  0.18135500  1
  N  N1  1  0.76163000  0.43123700  0.89355000  1
  N  N2  1  0.49360000  0.01540600  0.68135500  1
  N  N3  1  0.26163000  0.56876300  0.60645000  1
  N  N4  1  0.99360000  0.98459400  0.81864500  1
  N  N5  1  0.73837000  0.43123700  0.39355000  1
  N  N6  1  0.23837000  0.56876300  0.10645000  1
  N  N7  1  0.50640000  0.98459400  0.31864500  1
loop_
_geom_bond_atom_site_label_1
_geom_bond_atom_site_label_2
_geom_bond_distance
_geom_bond_site_symmetry_2
Pt0 Tl2 3.144479 1_555
Pt0 Tl0 3.144479 1_445
Pt1 Tl3 3.144479 1_545
Pt1 Tl1 3.144479 1_554
C0 N1 1.178342 1_555
C0 Pt1 2.003009 1_556
C1 N0 1.171136 1_655
C1 Pt0 1.996956 1_655
C2 N7 1.171136 1_555
C2 Pt1 1.996956 1_565
C3 N5 1.178342 1_555
C3 Pt0 2.003009 1_655
C4 N4 1.171136 1_455
C4 Pt0 1.996956 1_565
C5 N6 1.178342 1_555
C5 Pt1 2.003009 1_565
C6 N3 1.178342 1_555
C6 Pt0 2.003009 1_565
C7 N2 1.171136 1_555
C7 Pt1 1.996956 1_556
N0 Tl1 2.804186 1_554
N0 Tl3 2.877782 1_445
N1 Tl1 2.982350 1_655
N1 Tl3 2.998761 1_556
N1 Tl0 3.033980 1_555
N2 Tl2 2.804186 1_555
N2 Tl0 2.877782 1_545
N3 Tl0 2.982350 1_555
N3 Tl2 2.998761 1_555
N3 Tl1 3.033980 1_555
N4 Tl3 2.804186 1_556
N4 Tl1 2.877782 1_665
N5 Tl2 2.982350 1_555
N5 Tl0 2.998761 1_555
N5 Tl3 3.033980 1_555
N6 Tl3 2.982350 1_455
N6 Tl1 2.998761 1_554
N6 Tl2 3.033980 1_555
N7 Tl0 2.804186 1_555
N7 Tl2 2.877782 1_565
