# generated using pymatgen
data_H3CSClO
_symmetry_space_group_name_H-M   'P 1'
_cell_length_a   8.53206900
_cell_length_b   5.41010200
_cell_length_c   10.44190262
_cell_angle_alpha   58.84172369
_cell_angle_beta   90.00000000
_cell_angle_gamma   90.00000000
_symmetry_Int_Tables_number   1
_chemical_formula_structural   H3CSClO
_chemical_formula_sum   'H12 C4 S4 Cl4 O4'
_cell_volume   412.46008578
_cell_formula_units_Z   4
loop_
 _symmetry_equiv_pos_site_id
 _symmetry_equiv_pos_as_xyz
  1  'x, y, z'
loop_
 _atom_site_type_symbol
 _atom_site_label
 _atom_site_symmetry_multiplicity
 _atom_site_fract_x
 _atom_site_fract_y
 _atom_site_fract_z
 _atom_site_occupancy
  H  H0  1  0.22920900  0.99564900  0.57554900  1
  H  H1  1  0.27079100  0.99564900  0.07554900  1
  H  H2  1  0.77079100  0.00435100  0.42445100  1
  H  H3  1  0.72920900  0.00435100  0.92445100  1
  H  H4  1  0.03713400  0.16338800  0.54560200  1
  H  H5  1  0.46286600  0.16338800  0.04560200  1
  H  H6  1  0.96286600  0.83661200  0.45439800  1
  H  H7  1  0.53713400  0.83661200  0.95439800  1
  H  H8  1  0.20346000  0.31816100  0.58563200  1
  H  H9  1  0.29654000  0.31816100  0.08563200  1
  H  H10  1  0.79654000  0.68183900  0.41436800  1
  H  H11  1  0.70346000  0.68183900  0.91436800  1
  C  C0  1  0.14933200  0.11691200  0.60518800  1
  C  C1  1  0.35066800  0.11691200  0.10518800  1
  C  C2  1  0.85066800  0.88308800  0.39481200  1
  C  C3  1  0.64933200  0.88308800  0.89481200  1
  S  S0  1  0.10914100  0.90567600  0.80255800  1
  S  S1  1  0.39085900  0.90567600  0.30255800  1
  S  S2  1  0.89085900  0.09432400  0.19744200  1
  S  S3  1  0.60914100  0.09432400  0.69744200  1
  Cl  Cl0  1  0.01634100  0.53734000  0.79846000  1
  Cl  Cl1  1  0.48365900  0.53734000  0.29846000  1
  Cl  Cl2  1  0.98365900  0.46266000  0.20154000  1
  Cl  Cl3  1  0.51634100  0.46266000  0.70154000  1
  O  O0  1  0.26323900  0.82348200  0.87911500  1
  O  O1  1  0.23676100  0.82348200  0.37911500  1
  O  O2  1  0.73676100  0.17651800  0.12088500  1
  O  O3  1  0.76323900  0.17651800  0.62088500  1
loop_
_geom_bond_atom_site_label_1
_geom_bond_atom_site_label_2
_geom_bond_distance
_geom_bond_site_symmetry_2
C0 H0 1.095786 1_545
C0 H4 1.097653 1_555
C0 H8 1.100158 1_555
C0 S0 1.798268 1_545
C1 H1 1.095786 1_545
C1 H5 1.097653 1_555
C1 H9 1.100158 1_555
C1 S1 1.798268 1_545
C2 H2 1.095786 1_565
C2 H6 1.097653 1_555
C2 H10 1.100158 1_555
C2 S2 1.798268 1_565
C3 H3 1.095786 1_565
C3 H7 1.097653 1_555
C3 H11 1.100158 1_555
C3 S3 1.798268 1_565
Cl0 S0 2.165173 1_555
Cl0 H0 2.981962 1_555
Cl1 S1 2.165173 1_555
Cl1 H1 2.981962 1_555
Cl2 S2 2.165173 1_555
Cl2 H2 2.981962 1_555
Cl3 S3 2.165173 1_555
Cl3 H3 2.981962 1_555
O0 S0 1.482418 1_555
O1 S1 1.482418 1_555
O2 S2 1.482418 1_555
O3 S3 1.482418 1_555
