# generated using pymatgen
data_GaSb
_symmetry_space_group_name_H-M   'P 1'
_cell_length_a   8.47295204
_cell_length_b   8.47295204
_cell_length_c   8.47295204
_cell_angle_alpha   136.90616067
_cell_angle_beta   101.68981415
_cell_angle_gamma   93.85036919
_symmetry_Int_Tables_number   1
_chemical_formula_structural   GaSb
_chemical_formula_sum   'Ga8 Sb8'
_cell_volume   385.34668747
_cell_formula_units_Z   8
loop_
 _symmetry_equiv_pos_site_id
 _symmetry_equiv_pos_as_xyz
  1  'x, y, z'
loop_
 _atom_site_type_symbol
 _atom_site_label
 _atom_site_symmetry_multiplicity
 _atom_site_fract_x
 _atom_site_fract_y
 _atom_site_fract_z
 _atom_site_occupancy
  Ga  Ga0_0  1  0.00000000  0.00000000  0.00000000  1
  Ga  Ga0_1  1  0.00000000  0.00000000  0.50000000  1
  Ga  Ga0_2  1  0.00000000  0.50000000  0.00000000  1
  Ga  Ga0_3  1  0.00000000  0.50000000  0.50000000  1
  Ga  Ga0_4  1  0.50000000  0.00000000  0.00000000  1
  Ga  Ga0_5  1  0.50000000  0.00000000  0.50000000  1
  Ga  Ga0_6  1  0.50000000  0.50000000  0.00000000  1
  Ga  Ga0_7  1  0.50000000  0.50000000  0.50000000  1
  Sb  Sb0_0  1  0.25000000  0.25000000  0.00000000  1
  Sb  Sb0_1  1  0.25000000  0.25000000  0.50000000  1
  Sb  Sb0_2  1  0.25000000  0.75000000  0.00000000  1
  Sb  Sb0_3  1  0.25000000  0.75000000  0.50000000  1
  Sb  Sb0_4  1  0.75000000  0.25000000  0.00000000  1
  Sb  Sb0_5  1  0.75000000  0.25000000  0.50000000  1
  Sb  Sb0_6  1  0.75000000  0.75000000  0.00000000  1
  Sb  Sb0_7  1  0.75000000  0.75000000  0.50000000  1
loop_
_geom_bond_atom_site_label_1
_geom_bond_atom_site_label_2
_geom_bond_distance
_geom_bond_site_symmetry_2
Ga0_0 Sb0_6 2.893313 1_445
Ga0_0 Sb0_0 2.893313 1_555
Ga0_0 Sb0_2 3.094587 1_545
Ga0_0 Sb0_7 3.094587 1_444
Ga0_0 Sb0_1 3.094587 1_555
Ga0_0 Sb0_4 3.094587 1_455
Ga0_0 Ga0_3 3.111802 1_555
Ga0_0 Ga0_3 3.111802 1_544
Ga0_1 Sb0_1 2.893313 1_555
Ga0_1 Sb0_7 2.893313 1_445
Ga0_1 Sb0_0 3.094587 1_556
Ga0_1 Sb0_6 3.094587 1_445
Ga0_1 Sb0_3 3.094587 1_545
Ga0_1 Sb0_5 3.094587 1_455
Ga0_1 Ga0_2 3.111802 1_556
Ga0_1 Ga0_2 3.111802 1_545
Ga0_2 Sb0_2 2.893313 1_555
Ga0_2 Sb0_4 2.893313 1_455
Ga0_2 Sb0_6 3.094587 1_455
Ga0_2 Sb0_0 3.094587 1_555
Ga0_2 Sb0_3 3.094587 1_555
Ga0_2 Sb0_5 3.094587 1_454
Ga0_3 Sb0_5 2.893313 1_455
Ga0_3 Sb0_3 2.893313 1_555
Ga0_3 Sb0_7 3.094587 1_455
Ga0_3 Sb0_1 3.094587 1_555
Ga0_3 Sb0_2 3.094587 1_556
Ga0_3 Sb0_4 3.094587 1_455
Ga0_4 Sb0_2 2.893313 1_545
Ga0_4 Sb0_4 2.893313 1_555
Ga0_4 Sb0_6 3.094587 1_545
Ga0_4 Sb0_0 3.094587 1_555
Ga0_4 Sb0_3 3.094587 1_544
Ga0_4 Sb0_5 3.094587 1_555
Ga0_4 Ga0_7 3.111802 1_544
Ga0_4 Ga0_7 3.111802 1_555
Ga0_5 Sb0_3 2.893313 1_545
Ga0_5 Sb0_5 2.893313 1_555
Ga0_5 Sb0_2 3.094587 1_545
Ga0_5 Sb0_1 3.094587 1_555
Ga0_5 Sb0_4 3.094587 1_556
Ga0_5 Sb0_7 3.094587 1_545
Ga0_5 Ga0_6 3.111802 1_545
Ga0_5 Ga0_6 3.111802 1_556
Ga0_6 Sb0_0 2.893313 1_555
Ga0_6 Sb0_6 2.893313 1_555
Ga0_6 Sb0_1 3.094587 1_554
Ga0_6 Sb0_4 3.094587 1_555
Ga0_6 Sb0_7 3.094587 1_555
Ga0_6 Sb0_2 3.094587 1_555
Ga0_7 Sb0_1 2.893313 1_555
Ga0_7 Sb0_7 2.893313 1_555
Ga0_7 Sb0_6 3.094587 1_556
Ga0_7 Sb0_0 3.094587 1_555
Ga0_7 Sb0_3 3.094587 1_555
Ga0_7 Sb0_5 3.094587 1_555
Sb0_0 Sb0_3 3.111802 1_555
Sb0_0 Sb0_3 3.111802 1_544
Sb0_1 Sb0_2 3.111802 1_545
Sb0_1 Sb0_2 3.111802 1_556
Sb0_4 Sb0_7 3.111802 1_544
Sb0_4 Sb0_7 3.111802 1_555
Sb0_5 Sb0_6 3.111802 1_545
Sb0_5 Sb0_6 3.111802 1_556
