# generated using pymatgen
data_HfP2(H3O5)2
_symmetry_space_group_name_H-M   'P 1'
_cell_length_a   6.63638300
_cell_length_b   5.41369200
_cell_length_c   12.53117783
_cell_angle_alpha   81.07444971
_cell_angle_beta   90.00000000
_cell_angle_gamma   90.00000000
_symmetry_Int_Tables_number   1
_chemical_formula_structural   HfP2(H3O5)2
_chemical_formula_sum   'Hf2 P4 H12 O20'
_cell_volume   444.76009048
_cell_formula_units_Z   2
loop_
 _symmetry_equiv_pos_site_id
 _symmetry_equiv_pos_as_xyz
  1  'x, y, z'
loop_
 _atom_site_type_symbol
 _atom_site_label
 _atom_site_symmetry_multiplicity
 _atom_site_fract_x
 _atom_site_fract_y
 _atom_site_fract_z
 _atom_site_occupancy
  Hf  Hf0  1  0.24979300  0.79940300  0.87483700  1
  Hf  Hf1  1  0.74979300  0.20059700  0.12516300  1
  P  P0  1  0.24931500  0.24014100  0.05831700  1
  P  P1  1  0.74931500  0.75985900  0.94168300  1
  P  P2  1  0.32807700  0.34743400  0.69840800  1
  P  P3  1  0.82807700  0.65256600  0.30159200  1
  H  H0  1  0.64428000  0.48893400  0.67306600  1
  H  H1  1  0.14428000  0.51106600  0.32693400  1
  H  H2  1  0.28680100  0.59621000  0.55050000  1
  H  H3  1  0.78680100  0.40379000  0.44950000  1
  H  H4  1  0.31343100  0.16681700  0.28912100  1
  H  H5  1  0.81343100  0.83318300  0.71087900  1
  H  H6  1  0.32870000  0.95218500  0.59858800  1
  H  H7  1  0.82870000  0.04781500  0.40141200  1
  H  H8  1  0.15305600  0.13288500  0.38437000  1
  H  H9  1  0.65305600  0.86711500  0.61563000  1
  H  H10  1  0.88894700  0.00875300  0.52475100  1
  H  H11  1  0.38894700  0.99124700  0.47524900  1
  O  O0  1  0.25128200  0.06040400  0.97392900  1
  O  O1  1  0.75128200  0.93959600  0.02607100  1
  O  O2  1  0.43593800  0.19476500  0.13298800  1
  O  O3  1  0.93593800  0.80523500  0.86701200  1
  O  O4  1  0.05981100  0.19591900  0.12907600  1
  O  O5  1  0.55981100  0.80408100  0.87092400  1
  O  O6  1  0.25102800  0.51250000  0.99952200  1
  O  O7  1  0.75102800  0.48750000  0.00047800  1
  O  O8  1  0.25579400  0.07923300  0.73389100  1
  O  O9  1  0.75579400  0.92076700  0.26610900  1
  O  O10  1  0.26166800  0.53753200  0.76916200  1
  O  O11  1  0.76166800  0.46246800  0.23083800  1
  O  O12  1  0.56585400  0.33058000  0.69282000  1
  O  O13  1  0.06585400  0.66942000  0.30718000  1
  O  O14  1  0.23945000  0.42258800  0.58124800  1
  O  O15  1  0.73945000  0.57741200  0.41875200  1
  O  O16  1  0.28427600  0.20892200  0.36107100  1
  O  O17  1  0.78427600  0.79107800  0.63892900  1
  O  O18  1  0.90249900  0.12570500  0.45570100  1
  O  O19  1  0.40249900  0.87429500  0.54429900  1
loop_
_geom_bond_atom_site_label_1
_geom_bond_atom_site_label_2
_geom_bond_distance
_geom_bond_site_symmetry_2
Hf0 O0 2.020635 1_565
Hf0 O6 2.025023 1_555
Hf0 O5 2.058045 1_555
Hf0 O3 2.085178 1_455
Hf0 O10 2.086190 1_555
Hf0 O8 2.141451 1_565
Hf1 O1 2.020635 1_545
Hf1 O7 2.025023 1_555
Hf1 O4 2.058045 1_655
Hf1 O2 2.085178 1_555
Hf1 O11 2.086190 1_555
Hf1 O9 2.141451 1_545
H0 O12 1.000619 1_555
H1 O13 1.000619 1_555
H2 O14 1.009113 1_555
H3 O15 1.009113 1_555
H4 O16 0.982895 1_555
H4 O2 2.102384 1_555
H5 O17 0.982895 1_555
H5 O3 2.102384 1_555
H6 O19 0.984632 1_555
H6 O8 1.985891 1_565
H7 O18 0.984632 1_555
H7 O9 1.985891 1_545
H8 O16 0.987793 1_555
H9 O17 0.987793 1_555
H10 O18 0.993814 1_555
H11 O19 0.993814 1_555
O0 P0 1.544195 1_556
O1 P1 1.544195 1_554
O2 P0 1.548699 1_555
O3 P1 1.548699 1_555
O4 P0 1.535995 1_555
O5 P1 1.535995 1_555
O6 P0 1.542699 1_556
O7 P1 1.542699 1_554
O8 P2 1.528289 1_555
O9 P3 1.528289 1_555
O10 P2 1.524006 1_555
O11 P3 1.524006 1_555
O12 P2 1.582792 1_555
O13 P3 1.582792 1_455
O14 P2 1.575306 1_555
O15 P3 1.575306 1_555
