# generated using pymatgen
data_I
_symmetry_space_group_name_H-M   'P 1'
_cell_length_a   7.23780834
_cell_length_b   7.23781092
_cell_length_c   7.23780942
_cell_angle_alpha   109.47122781
_cell_angle_beta   109.47123492
_cell_angle_gamma   109.47122323
_symmetry_Int_Tables_number   1
_chemical_formula_structural   I
_chemical_formula_sum   I8
_cell_volume   291.87670574
_cell_formula_units_Z   8
loop_
 _symmetry_equiv_pos_site_id
 _symmetry_equiv_pos_as_xyz
  1  'x, y, z'
loop_
 _atom_site_type_symbol
 _atom_site_label
 _atom_site_symmetry_multiplicity
 _atom_site_fract_x
 _atom_site_fract_y
 _atom_site_fract_z
 _atom_site_occupancy
  I  I0_0  1  0.00000000  0.00000000  0.00000000  1
  I  I0_1  1  0.00000000  0.00000000  0.50000000  1
  I  I0_2  1  0.00000000  0.50000000  0.00000000  1
  I  I0_3  1  0.00000000  0.50000000  0.50000000  1
  I  I0_4  1  0.50000000  0.00000000  0.00000000  1
  I  I0_5  1  0.50000000  0.00000000  0.50000000  1
  I  I0_6  1  0.50000000  0.50000000  0.00000000  1
  I  I0_7  1  0.50000000  0.50000000  0.50000000  1
loop_
_geom_bond_atom_site_label_1
_geom_bond_atom_site_label_2
_geom_bond_distance
_geom_bond_site_symmetry_2
I0_0 I0_7 3.618903 1_444
I0_0 I0_7 3.618903 1_555
I0_0 I0_4 3.618904 1_555
I0_0 I0_4 3.618904 1_455
I0_0 I0_1 3.618905 1_554
I0_0 I0_1 3.618905 1_555
I0_0 I0_2 3.618905 1_555
I0_0 I0_2 3.618905 1_545
I0_0 I0_5 4.178750 1_454
I0_0 I0_5 4.178750 1_555
I0_0 I0_6 4.178751 1_445
I0_0 I0_6 4.178751 1_555
I0_0 I0_3 4.178751 1_544
I0_0 I0_3 4.178751 1_555
I0_1 I0_6 3.618903 1_556
I0_1 I0_6 3.618903 1_445
I0_1 I0_5 3.618904 1_555
I0_1 I0_5 3.618904 1_455
I0_1 I0_3 3.618905 1_545
I0_1 I0_3 3.618905 1_555
I0_1 I0_4 4.178750 1_556
I0_1 I0_4 4.178750 1_455
I0_1 I0_7 4.178751 1_445
I0_1 I0_7 4.178751 1_555
I0_1 I0_2 4.178751 1_545
I0_1 I0_2 4.178751 1_556
I0_2 I0_5 3.618903 1_454
I0_2 I0_5 3.618903 1_565
I0_2 I0_6 3.618904 1_555
I0_2 I0_6 3.618904 1_455
I0_2 I0_3 3.618905 1_555
I0_2 I0_3 3.618905 1_554
I0_2 I0_7 4.178750 1_454
I0_2 I0_7 4.178750 1_555
I0_2 I0_4 4.178751 1_565
I0_2 I0_4 4.178751 1_455
I0_3 I0_4 3.618903 1_566
I0_3 I0_4 3.618903 1_455
I0_3 I0_7 3.618904 1_555
I0_3 I0_7 3.618904 1_455
I0_3 I0_6 4.178750 1_556
I0_3 I0_6 4.178750 1_455
I0_3 I0_5 4.178751 1_455
I0_3 I0_5 4.178751 1_565
I0_4 I0_5 3.618905 1_555
I0_4 I0_5 3.618905 1_554
I0_4 I0_6 3.618905 1_555
I0_4 I0_6 3.618905 1_545
I0_4 I0_7 4.178751 1_544
I0_4 I0_7 4.178751 1_555
I0_5 I0_7 3.618905 1_555
I0_5 I0_7 3.618905 1_545
I0_5 I0_6 4.178751 1_556
I0_5 I0_6 4.178751 1_545
I0_6 I0_7 3.618905 1_554
I0_6 I0_7 3.618905 1_555
