# generated using pymatgen
data_Re2AuSe
_symmetry_space_group_name_H-M   'P 1'
_cell_length_a   4.54259114
_cell_length_b   4.54259114
_cell_length_c   4.54259114
_cell_angle_alpha   60.00000000
_cell_angle_beta   60.00000000
_cell_angle_gamma   60.00000000
_symmetry_Int_Tables_number   1
_chemical_formula_structural   Re2AuSe
_chemical_formula_sum   'Re2 Au1 Se1'
_cell_volume   66.28205290
_cell_formula_units_Z   1
loop_
 _symmetry_equiv_pos_site_id
 _symmetry_equiv_pos_as_xyz
  1  'x, y, z'
loop_
 _atom_site_type_symbol
 _atom_site_label
 _atom_site_symmetry_multiplicity
 _atom_site_fract_x
 _atom_site_fract_y
 _atom_site_fract_z
 _atom_site_occupancy
  Re  Re0  1  0.00000000  0.00000000  0.00000000  1
  Re  Re1  1  0.25000000  0.25000000  0.25000000  1
  Au  Au0  1  0.50000000  0.50000000  0.50000000  1
  Se  Se0  1  0.75000000  0.75000000  0.75000000  1
loop_
_geom_bond_atom_site_label_1
_geom_bond_atom_site_label_2
_geom_bond_distance
_geom_bond_site_symmetry_2
Re0 Re1 2.781758 1_455
Re0 Se0 2.781758 1_444
Re0 Se0 2.781758 1_445
Re0 Se0 2.781758 1_454
Re0 Se0 2.781758 1_544
Re0 Re1 2.781758 1_554
Re0 Re1 2.781758 1_555
Re0 Re1 2.781758 1_545
Re1 Se0 3.212097 1_554
Re1 Se0 3.212097 1_445
Re1 Se0 3.212097 1_454
Re1 Se0 3.212097 1_455
Re1 Se0 3.212097 1_544
Re1 Se0 3.212097 1_545
Au0 Se0 2.781758 1_554
Au0 Se0 2.781758 1_455
Au0 Re1 2.781758 1_565
Au0 Re1 2.781758 1_655
Au0 Re1 2.781758 1_556
Au0 Se0 2.781758 1_555
Au0 Se0 2.781758 1_545
Au0 Re1 2.781758 1_555
Au0 Re0 3.212097 1_556
Au0 Re0 3.212097 1_565
Au0 Re0 3.212097 1_656
Au0 Re0 3.212097 1_665
Au0 Re0 3.212097 1_655
Au0 Re0 3.212097 1_566
