# generated using pymatgen
data_Nd(HO)3
_symmetry_space_group_name_H-M   'P 1'
_cell_length_a   3.71697000
_cell_length_b   6.52641600
_cell_length_c   6.57270054
_cell_angle_alpha   60.66544090
_cell_angle_beta   90.00000000
_cell_angle_gamma   90.00000000
_symmetry_Int_Tables_number   1
_chemical_formula_structural   Nd(HO)3
_chemical_formula_sum   'Nd2 H6 O6'
_cell_volume   138.99895438
_cell_formula_units_Z   2
loop_
 _symmetry_equiv_pos_site_id
 _symmetry_equiv_pos_as_xyz
  1  'x, y, z'
loop_
 _atom_site_type_symbol
 _atom_site_label
 _atom_site_symmetry_multiplicity
 _atom_site_fract_x
 _atom_site_fract_y
 _atom_site_fract_z
 _atom_site_occupancy
  Nd  Nd0  1  0.50000000  0.33821000  0.32461500  1
  Nd  Nd1  1  0.00000000  0.66577900  0.66430200  1
  H  H0  1  0.50000000  0.86744900  0.85254400  1
  H  H1  1  0.50000000  0.85889000  0.28323100  1
  H  H2  1  0.50000000  0.27748000  0.85969700  1
  H  H3  1  0.00000000  0.13713300  0.14058000  1
  H  H4  1  0.00000000  0.14161600  0.69531200  1
  H  H5  1  0.00000000  0.72131500  0.13665300  1
  O  O0  1  0.50000000  0.91341300  0.68733600  1
  O  O1  1  0.50000000  0.69053800  0.39420000  1
  O  O2  1  0.50000000  0.39644600  0.90868300  1
  O  O3  1  0.00000000  0.08774500  0.30654200  1
  O  O4  1  0.00000000  0.31125800  0.59285400  1
  O  O5  1  0.00000000  0.60827300  0.08004200  1
loop_
_geom_bond_atom_site_label_1
_geom_bond_atom_site_label_2
_geom_bond_distance
_geom_bond_site_symmetry_2
Nd0 O4 2.507869 1_655
Nd0 O4 2.507869 1_555
Nd0 O3 2.516024 1_555
Nd0 O3 2.516024 1_655
Nd0 O5 2.523586 1_655
Nd0 O5 2.523586 1_555
Nd0 O1 2.554809 1_555
Nd0 O2 2.569052 1_554
Nd0 O0 2.625600 1_545
Nd1 O0 2.515673 1_455
Nd1 O0 2.515673 1_555
Nd1 O1 2.520057 1_555
Nd1 O1 2.520057 1_455
Nd1 O2 2.521376 1_455
Nd1 O2 2.521376 1_555
Nd1 O5 2.569583 1_556
Nd1 O4 2.576548 1_555
Nd1 O3 2.601616 1_565
H0 O0 0.974640 1_555
H1 O1 0.976723 1_555
H2 O2 0.975415 1_555
H3 O3 0.974308 1_555
H4 O4 0.974041 1_555
H5 O5 0.975555 1_555
