# generated using pymatgen
data_KNb2Se
_symmetry_space_group_name_H-M   'P 1'
_cell_length_a   4.77826842
_cell_length_b   4.77826842
_cell_length_c   4.77826842
_cell_angle_alpha   60.00000000
_cell_angle_beta   60.00000000
_cell_angle_gamma   60.00000000
_symmetry_Int_Tables_number   1
_chemical_formula_structural   KNb2Se
_chemical_formula_sum   'K1 Nb2 Se1'
_cell_volume   77.14301870
_cell_formula_units_Z   1
loop_
 _symmetry_equiv_pos_site_id
 _symmetry_equiv_pos_as_xyz
  1  'x, y, z'
loop_
 _atom_site_type_symbol
 _atom_site_label
 _atom_site_symmetry_multiplicity
 _atom_site_fract_x
 _atom_site_fract_y
 _atom_site_fract_z
 _atom_site_occupancy
  K  K0  1  0.00000000  0.00000000  0.00000000  1
  Nb  Nb0  1  0.75000000  0.75000000  0.75000000  1
  Nb  Nb1  1  0.25000000  0.25000000  0.25000000  1
  Se  Se0  1  0.50000000  0.50000000  0.50000000  1
loop_
_geom_bond_atom_site_label_1
_geom_bond_atom_site_label_2
_geom_bond_distance
_geom_bond_site_symmetry_2
K0 Nb0 2.926080 1_444
K0 Nb0 2.926080 1_445
K0 Nb1 2.926080 1_555
K0 Nb1 2.926080 1_554
K0 Nb1 2.926080 1_455
K0 Nb0 2.926080 1_544
K0 Nb1 2.926080 1_545
K0 Nb0 2.926080 1_454
K0 Se0 3.378746 1_554
K0 Se0 3.378746 1_455
K0 Se0 3.378746 1_454
K0 Se0 3.378746 1_445
K0 Se0 3.378746 1_544
K0 Se0 3.378746 1_545
Nb0 Se0 2.926080 1_555
Nb0 Se0 2.926080 1_556
Nb0 Se0 2.926080 1_565
Nb0 Se0 2.926080 1_655
Nb0 Nb1 3.378746 1_656
Nb0 Nb1 3.378746 1_556
Nb0 Nb1 3.378746 1_566
Nb0 Nb1 3.378746 1_655
Nb0 Nb1 3.378746 1_665
Nb0 Nb1 3.378746 1_565
Nb1 Se0 2.926080 1_555
Nb1 Se0 2.926080 1_554
Nb1 Se0 2.926080 1_455
Nb1 Se0 2.926080 1_545
