# generated using pymatgen
data_K15Nd7Zr9(PO4)24
_symmetry_space_group_name_H-M   'P 1'
_cell_length_a   10.63052117
_cell_length_b   10.59529626
_cell_length_c   21.19340676
_cell_angle_alpha   89.96372966
_cell_angle_beta   90.07018700
_cell_angle_gamma   89.40242559
_symmetry_Int_Tables_number   1
_chemical_formula_structural   K15Nd7Zr9(PO4)24
_chemical_formula_sum   'K15 Nd7 Zr9 P24 O96'
_cell_volume   2386.95591171
_cell_formula_units_Z   1
loop_
 _symmetry_equiv_pos_site_id
 _symmetry_equiv_pos_as_xyz
  1  'x, y, z'
loop_
 _atom_site_type_symbol
 _atom_site_label
 _atom_site_symmetry_multiplicity
 _atom_site_fract_x
 _atom_site_fract_y
 _atom_site_fract_z
 _atom_site_occupancy
  K  K0  1  0.06919876  0.42777526  0.28560384  1
  K  K1  1  0.06280808  0.43339356  0.78351767  1
  K  K2  1  0.20243075  0.79878902  0.14982889  1
  K  K3  1  0.20148466  0.79895741  0.64886105  1
  K  K4  1  0.29786799  0.20216491  0.89949608  1
  K  K5  1  0.43734386  0.56648230  0.03366795  1
  K  K6  1  0.43334735  0.56821311  0.53410339  1
  K  K7  1  0.57310513  0.06826789  0.21681626  1
  K  K8  1  0.57478523  0.06915710  0.71668154  1
  K  K9  1  0.70184551  0.69998239  0.85174194  1
  K  K10  1  0.70136009  0.70307986  0.35056042  1
  K  K11  1  0.79958064  0.29826718  0.60188130  1
  K  K12  1  0.79810707  0.29792931  0.10097095  1
  K  K13  1  0.92891486  0.93181352  0.46603325  1
  K  K14  1  0.92545680  0.93097861  0.96692207  1
  Nd  Nd0  1  0.58112239  0.91509170  0.54163640  1
  Nd  Nd1  1  0.58003980  0.91724147  0.04268615  1
  Nd  Nd2  1  0.64843556  0.34247445  0.92359217  1
  Nd  Nd3  1  0.85108478  0.65640286  0.67242752  1
  Nd  Nd4  1  0.85103100  0.65520797  0.17513458  1
  Nd  Nd5  1  0.92287127  0.08159070  0.29243018  1
  Nd  Nd6  1  0.92036097  0.08255317  0.79217361  1
  Zr  Zr0  1  0.08788298  0.58007150  0.45888716  1
  Zr  Zr1  1  0.08485091  0.58262339  0.95961198  1
  Zr  Zr2  1  0.15142840  0.14489068  0.07383020  1
  Zr  Zr3  1  0.15045160  0.14783410  0.57003518  1
  Zr  Zr4  1  0.35038029  0.86066581  0.32480758  1
  Zr  Zr5  1  0.34838511  0.85480088  0.82336245  1
  Zr  Zr6  1  0.41440469  0.41606430  0.21021625  1
  Zr  Zr7  1  0.41621889  0.41646548  0.70838167  1
  Zr  Zr8  1  0.63897585  0.35028827  0.42587335  1
  P  P0  1  0.04350591  0.75999359  0.31847974  1
  P  P1  1  0.04032556  0.75990638  0.81793034  1
  P  P2  1  0.13240137  0.46032492  0.11566436  1
  P  P3  1  0.13329355  0.46029695  0.61535532  1
  P  P4  1  0.24231151  0.12876501  0.23020937  1
  P  P5  1  0.24227731  0.12922369  0.72911028  1
  P  P6  1  0.25656652  0.86924028  0.48088125  1
  P  P7  1  0.25759126  0.87066863  0.98061280  1
  P  P8  1  0.36715746  0.53908629  0.86490572  1
  P  P9  1  0.37458248  0.53934468  0.36677112  1
  P  P10  1  0.45927757  0.24004152  0.06846348  1
  P  P11  1  0.46228824  0.24262437  0.56495866  1
  P  P12  1  0.52584442  0.73173141  0.69305186  1
  P  P13  1  0.52524575  0.73185208  0.19380629  1
  P  P14  1  0.62276842  0.03615222  0.38058200  1
  P  P15  1  0.61642512  0.02753935  0.87846875  1
  P  P16  1  0.72543878  0.37466280  0.26922858  1
  P  P17  1  0.72925105  0.37915585  0.76392831  1
  P  P18  1  0.77085666  0.62048289  0.01448577  1
  P  P19  1  0.76873616  0.61300848  0.51207239  1
  P  P20  1  0.88503819  0.97231292  0.62818596  1
  P  P21  1  0.88307172  0.97181703  0.12879433  1
  P  P22  1  0.96157138  0.27209379  0.44111309  1
  P  P23  1  0.97447597  0.26814028  0.94313628  1
  O  O0  1  0.01204885  0.40811613  0.43143571  1
  O  O1  1  0.01523340  0.40738115  0.93249091  1
  O  O2  1  0.03121939  0.53886671  0.14871322  1
  O  O3  1  0.03289936  0.53968757  0.64855225  1
  O  O4  1  0.03615597  0.66952333  0.37633881  1
  O  O5  1  0.03128896  0.67139733  0.87620604  1
  O  O6  1  0.03776074  0.20934781  0.49581416  1
  O  O7  1  0.06752141  0.20754252  0.99151504  1
  O  O8  1  0.09111830  0.31965299  0.11280094  1
  O  O9  1  0.09232262  0.31984460  0.61263236  1
  O  O10  1  0.11198801  0.16607014  0.25402712  1
  O  O11  1  0.11311883  0.16702926  0.75503287  1
  O  O12  1  0.15718488  0.51118118  0.04752760  1
  O  O13  1  0.15724591  0.51108073  0.54728899  1
  O  O14  1  0.18277745  0.77069157  0.29587046  1
  O  O15  1  0.17984606  0.76901949  0.79502649  1
  O  O16  1  0.16656681  0.75507634  0.48795900  1
  O  O17  1  0.16766276  0.75651899  0.98606457  1
  O  O18  1  0.19924516  0.97897274  0.02151366  1
  O  O19  1  0.19771920  0.97994063  0.52038716  1
  O  O20  1  0.23483602  0.08342739  0.15988775  1
  O  O21  1  0.23406384  0.08464152  0.65902162  1
  O  O22  1  0.25516977  0.47159791  0.15525711  1
  O  O23  1  0.25665773  0.47066215  0.65436047  1
  O  O24  1  0.25478455  0.52824725  0.40814055  1
  O  O25  1  0.24404887  0.52857766  0.90409060  1
  O  O26  1  0.26349444  0.90847610  0.41045819  1
  O  O27  1  0.26461528  0.91650846  0.91051637  1
  O  O28  1  0.30090061  0.02112614  0.77056836  1
  O  O29  1  0.30008447  0.01789685  0.26920733  1
  O  O30  1  0.33350842  0.24304129  0.73413211  1
  O  O31  1  0.33247272  0.24264237  0.23457169  1
  O  O32  1  0.31985639  0.23137215  0.04531720  1
  O  O33  1  0.32152035  0.23404080  0.54502355  1
  O  O34  1  0.34966510  0.48707580  0.29936254  1
  O  O35  1  0.34372386  0.48879674  0.79645712  1
  O  O36  1  0.38774831  0.83333497  0.00525931  1
  O  O37  1  0.38671746  0.83322590  0.50641712  1
  O  O38  1  0.40845642  0.68006095  0.86250467  1
  O  O39  1  0.41578698  0.67991103  0.36331131  1
  O  O40  1  0.43504562  0.79292295  0.24333008  1
  O  O41  1  0.43299263  0.79255047  0.74138888  1
  O  O42  1  0.46918290  0.32894771  0.12657130  1
  O  O43  1  0.47568724  0.33404211  0.62201847  1
  O  O44  1  0.46724469  0.45960990  0.89836238  1
  O  O45  1  0.48058409  0.46079495  0.39929187  1
  O  O46  1  0.48399978  0.59263152  0.18314538  1
  O  O47  1  0.48473130  0.59277706  0.68224553  1
  O  O48  1  0.50744129  0.10802410  0.08694430  1
  O  O49  1  0.51318974  0.11172351  0.58293987  1
  O  O50  1  0.50905024  0.95974600  0.35355806  1
  O  O51  1  0.51430650  0.93415375  0.85260086  1
  O  O52  1  0.50829500  0.80576114  0.13186471  1
  O  O53  1  0.51021025  0.80567695  0.63103926  1
  O  O54  1  0.53732497  0.30109928  0.01598246  1
  O  O55  1  0.54114971  0.30231543  0.51049393  1
  O  O56  1  0.58788081  0.17983647  0.38397699  1
  O  O57  1  0.55952975  0.16219975  0.87621848  1
  O  O58  1  0.58745376  0.35641408  0.24542861  1
  O  O59  1  0.58786590  0.35879190  0.74426118  1
  O  O60  1  0.65596004  0.98882154  0.44686103  1
  O  O61  1  0.65216993  0.99097240  0.94633960  1
  O  O62  1  0.66132770  0.73699852  0.71807548  1
  O  O63  1  0.66105430  0.73759430  0.21846836  1
  O  O64  1  0.70170325  0.74829548  0.00928985  1
  O  O65  1  0.69339891  0.73684339  0.50448731  1
  O  O66  1  0.70683987  0.51521750  0.46703230  1
  O  O67  1  0.70840225  0.52903818  0.96831546  1
  O  O68  1  0.71982645  0.41091589  0.34080863  1
  O  O69  1  0.73329628  0.43122859  0.83177531  1
  O  O70  1  0.73269369  0.01376337  0.33525565  1
  O  O71  1  0.73137408  0.01344313  0.83506716  1
  O  O72  1  0.76845985  0.98653969  0.08509991  1
  O  O73  1  0.77001274  0.98496694  0.58434026  1
  O  O74  1  0.76656182  0.56815727  0.08255060  1
  O  O75  1  0.76455158  0.56343857  0.58032279  1
  O  O76  1  0.78935941  0.48053251  0.23258009  1
  O  O77  1  0.79128927  0.47084994  0.71775142  1
  O  O78  1  0.79923534  0.25162824  0.25929502  1
  O  O79  1  0.79824109  0.25131723  0.75869907  1
  O  O80  1  0.81916275  0.27696018  0.45939675  1
  O  O81  1  0.83933133  0.26236335  0.96847200  1
  O  O82  1  0.84722993  0.00993636  0.19635927  1
  O  O83  1  0.84808487  0.00960064  0.69579467  1
  O  O84  1  0.90844271  0.63458766  0.49205454  1
  O  O85  1  0.91223265  0.64053000  0.99497884  1
  O  O86  1  0.94054753  0.83692871  0.62628507  1
  O  O87  1  0.93843953  0.83640530  0.12746619  1
  O  O88  1  0.96517535  0.69913143  0.26617802  1
  O  O89  1  0.96227596  0.69903374  0.76531251  1
  O  O90  1  0.98091808  0.19465391  0.38144961  1
  O  O91  1  0.99035184  0.19445651  0.88114469  1
  O  O92  1  0.98549290  0.06441488  0.10263008  1
  O  O93  1  0.98763784  0.06489555  0.60297966  1
  O  O94  1  0.99212476  0.89031699  0.33767735  1
  O  O95  1  0.99245877  0.89188488  0.83657642  1
loop_
_geom_bond_atom_site_label_1
_geom_bond_atom_site_label_2
_geom_bond_distance
_geom_bond_site_symmetry_2
K0 O10 2.884477 1_555
K0 O34 3.066975 1_555
K0 O88 3.096708 1_455
K0 O2 3.154073 1_555
K0 O0 3.157717 1_555
K0 O4 3.220420 1_555
K0 O76 3.221998 1_455
K0 O90 3.339823 1_455
K0 O22 3.433111 1_555
K0 O24 3.435763 1_555
K0 O78 3.484142 1_455
K1 O11 2.930326 1_555
K1 O89 3.024482 1_455
K1 O35 3.061442 1_555
K1 O3 3.088274 1_555
K1 O1 3.210247 1_555
K1 O5 3.212538 1_555
K1 O77 3.224435 1_455
K1 O25 3.360170 1_555
K1 O91 3.364704 1_455
K1 O23 3.453206 1_555
K1 O79 3.466872 1_455
K1 O69 3.650635 1_455
K2 O87 2.869202 1_455
K2 O20 3.046578 1_565
K2 O14 3.116689 1_555
K2 O40 3.167032 1_555
K2 O52 3.275766 1_555
K2 O2 3.316925 1_555
K2 O18 3.321596 1_555
K2 O22 3.507744 1_555
K2 O17 3.519288 1_554
K3 O86 2.838753 1_455
K3 O21 3.057940 1_565
K3 O15 3.122750 1_555
K3 O41 3.145050 1_555
K3 O3 3.295567 1_555
K3 O53 3.305536 1_555
K3 O19 3.329240 1_555
K3 O16 3.461933 1_555
K3 O23 3.523282 1_555
K4 O57 2.852900 1_555
K4 O27 3.059661 1_545
K4 O32 3.114837 1_556
K4 O7 3.132346 1_555
K4 O44 3.284121 1_555
K4 O91 3.293503 1_455
K4 O28 3.339467 1_555
K4 O25 3.500986 1_555
K4 O30 3.552221 1_555
K5 O36 2.932666 1_555
K5 O54 3.019337 1_555
K5 O12 3.055783 1_555
K5 O44 3.099214 1_554
K5 O42 3.209304 1_555
K5 O46 3.218494 1_555
K5 O67 3.219528 1_554
K5 O52 3.371955 1_555
K5 O22 3.383938 1_555
K5 O25 3.453972 1_554
K5 O64 3.462758 1_555
K5 O74 3.648881 1_555
K6 O37 2.905585 1_555
K6 O13 3.016323 1_555
K6 O55 3.071888 1_555
K6 O45 3.115495 1_555
K6 O43 3.130317 1_555
K6 O47 3.197378 1_555
K6 O66 3.281116 1_555
K6 O24 3.303783 1_555
K6 O23 3.337792 1_555
K6 O53 3.356155 1_555
K6 O65 3.366667 1_555
K6 O75 3.653272 1_555
K7 O48 2.868493 1_555
K7 O82 3.004618 1_555
K7 O70 3.078914 1_555
K7 O58 3.118266 1_555
K7 O29 3.159240 1_555
K7 O31 3.162800 1_555
K7 O50 3.193941 1_545
K7 O78 3.233847 1_555
K7 O40 3.327159 1_545
K7 O52 3.390467 1_545
K7 O63 3.616890 1_545
K8 O49 2.941750 1_555
K8 O83 3.000045 1_555
K8 O71 3.062985 1_555
K8 O59 3.128783 1_555
K8 O30 3.164549 1_555
K8 O28 3.174683 1_555
K8 O79 3.202099 1_555
K8 O51 3.282638 1_545
K8 O41 3.350753 1_545
K8 O53 3.406214 1_545
K8 O57 3.525962 1_555
K8 O62 3.628378 1_545
K9 O62 2.890752 1_555
K9 O69 2.895042 1_555
K9 O67 3.062746 1_555
K9 O38 3.136782 1_555
K9 O51 3.166674 1_555
K9 O89 3.321426 1_555
K9 O71 3.357736 1_565
K9 O64 3.378308 1_556
K9 O5 3.549489 1_655
K10 O63 2.854279 1_555
K10 O39 3.060520 1_555
K10 O68 3.106767 1_555
K10 O66 3.170094 1_555
K10 O65 3.283114 1_555
K10 O70 3.327730 1_565
K10 O88 3.327922 1_555
K10 O50 3.385767 1_555
K10 O4 3.613911 1_655
K11 O75 2.866572 1_555
K11 O80 3.035541 1_555
K11 O77 3.063438 1_555
K11 O9 3.130798 1_655
K11 O93 3.163509 1_555
K11 O73 3.358449 1_545
K11 O55 3.359298 1_555
K11 O79 3.360283 1_555
K11 O43 3.486792 1_555
K12 O81 2.867126 1_554
K12 O74 2.905288 1_555
K12 O8 3.135493 1_655
K12 O92 3.160331 1_555
K12 O54 3.304020 1_555
K12 O72 3.334735 1_545
K12 O78 3.390780 1_555
K12 O76 3.396389 1_555
K12 O42 3.551020 1_555
K13 O94 2.836316 1_555
K13 O60 2.984923 1_555
K13 O73 3.074024 1_555
K13 O19 3.126587 1_655
K13 O16 3.162650 1_655
K13 O84 3.206450 1_555
K13 O6 3.233517 1_665
K13 O93 3.289486 1_565
K13 O90 3.361966 1_565
K13 O65 3.363126 1_555
K13 O86 3.542989 1_555
K14 O95 2.882749 1_555
K14 O61 2.998740 1_555
K14 O72 3.065382 1_556
K14 O85 3.138562 1_555
K14 O18 3.176735 1_656
K14 O17 3.179315 1_655
K14 O64 3.210859 1_556
K14 O92 3.270726 1_566
K14 O7 3.351307 1_665
K14 O91 3.407452 1_565
K14 O87 3.548466 1_556
K14 O81 3.619455 1_565
Nd0 O60 2.300564 1_555
Nd0 O73 2.329527 1_555
Nd0 O53 2.349729 1_555
Nd0 O65 2.359745 1_555
Nd0 O49 2.366577 1_565
Nd0 O37 2.369574 1_555
Nd1 O64 2.309431 1_555
Nd1 O61 2.319901 1_554
Nd1 O72 2.320826 1_555
Nd1 O48 2.352256 1_565
Nd1 O52 2.359752 1_555
Nd1 O36 2.373379 1_555
Nd2 O67 2.288949 1_555
Nd2 O54 2.331679 1_556
Nd2 O44 2.341589 1_555
Nd2 O69 2.346139 1_555
Nd2 O57 2.363764 1_555
Nd2 O81 2.387808 1_555
Nd3 O77 2.284082 1_555
Nd3 O3 2.339718 1_655
Nd3 O89 2.341568 1_555
Nd3 O86 2.357363 1_555
Nd3 O75 2.375644 1_555
Nd3 O62 2.388346 1_555
Nd4 O76 2.315530 1_555
Nd4 O88 2.327914 1_555
Nd4 O2 2.335895 1_655
Nd4 O74 2.349972 1_555
Nd4 O87 2.367882 1_555
Nd4 O63 2.377558 1_555
Nd5 O82 2.319317 1_555
Nd5 O90 2.321769 1_555
Nd5 O78 2.326602 1_555
Nd5 O70 2.336968 1_555
Nd5 O94 2.352310 1_545
Nd5 O10 2.354987 1_655
Nd6 O79 2.309472 1_555
Nd6 O83 2.317443 1_555
Nd6 O71 2.330898 1_555
Nd6 O95 2.348974 1_545
Nd6 O91 2.352157 1_555
Nd6 O11 2.379264 1_655
O0 P22 1.556625 1_455
O0 Zr0 2.082926 1_555
O1 P23 1.558295 1_455
O1 Zr1 2.086757 1_555
O2 P2 1.524455 1_555
O3 P3 1.524934 1_555
O4 P0 1.558490 1_555
O4 Zr0 2.060581 1_555
O5 P1 1.553942 1_555
O5 Zr1 2.077926 1_555
O6 P22 1.558024 1_455
O6 Zr3 2.076540 1_555
O7 P23 1.557334 1_455
O7 Zr2 2.064475 1_556
O8 P2 1.559310 1_555
O8 Zr2 2.121392 1_555
O9 P3 1.556001 1_555
O9 Zr3 2.120928 1_555
O10 P4 1.523459 1_555
O11 P5 1.529091 1_555
O12 P2 1.564591 1_555
O12 Zr1 2.149058 1_554
O13 P3 1.561442 1_555
O13 Zr0 2.138179 1_555
O14 P0 1.561917 1_555
O14 Zr4 2.119637 1_555
O15 P1 1.565071 1_555
O15 Zr5 2.104463 1_555
O16 P6 1.557323 1_555
O16 Zr0 2.133064 1_555
O17 P7 1.553782 1_555
O17 Zr1 2.125542 1_555
O18 P7 1.562248 1_554
O18 Zr2 2.136199 1_565
O19 P6 1.566934 1_555
O19 Zr3 2.123457 1_565
O20 P4 1.568323 1_555
O20 Zr2 2.125840 1_555
O21 P5 1.561616 1_555
O21 Zr3 2.185618 1_555
O22 P2 1.556382 1_555
O22 Zr6 2.131157 1_555
O23 P3 1.554257 1_555
O23 Zr7 2.119380 1_555
O24 P9 1.552449 1_555
O24 Zr0 2.142722 1_555
O25 P8 1.555752 1_555
O25 Zr1 2.135905 1_555
O26 P6 1.551108 1_555
O26 Zr4 2.097686 1_555
O27 P7 1.564780 1_555
O27 Zr5 2.150730 1_555
O28 P5 1.566731 1_555
O28 Zr5 2.142396 1_545
O29 P4 1.556485 1_555
O29 Zr4 2.104055 1_545
O30 P5 1.559000 1_555
O30 Zr7 2.116805 1_555
O31 P4 1.551463 1_555
O31 Zr6 2.105842 1_555
O32 P10 1.564247 1_555
O32 Zr2 2.108730 1_555
O33 P11 1.558021 1_555
O33 Zr3 2.111582 1_555
O34 P9 1.555939 1_555
O34 Zr6 2.145558 1_555
O35 P8 1.566282 1_555
O35 Zr7 2.158361 1_555
O36 P7 1.526537 1_554
O37 P6 1.529594 1_555
O38 P8 1.562056 1_555
O38 Zr5 2.120334 1_555
O39 P9 1.558503 1_555
O39 Zr4 2.187694 1_555
O40 P13 1.558887 1_555
O40 Zr4 2.073386 1_555
O41 P12 1.558536 1_555
O41 Zr5 2.062788 1_555
O42 P10 1.555071 1_555
O42 Zr6 2.080145 1_555
O43 P11 1.557176 1_555
O43 Zr7 2.122677 1_555
O44 P8 1.524014 1_555
O45 P9 1.554120 1_555
O45 Zr8 2.116392 1_555
O46 P13 1.559757 1_555
O46 Zr6 2.098782 1_555
O47 P12 1.557122 1_555
O47 Zr7 2.086871 1_555
O48 P10 1.534918 1_555
O49 P11 1.531267 1_555
O50 P14 1.569741 1_565
O50 Zr4 2.086540 1_555
O51 P15 1.574696 1_565
O51 Zr5 2.056911 1_555
O52 P13 1.537594 1_555
O53 P12 1.537587 1_555
O54 P10 1.535102 1_555
O55 P11 1.564511 1_555
O55 Zr8 2.137886 1_555
O56 P14 1.564859 1_555
O56 Zr8 2.089580 1_555
O57 P15 1.544538 1_555
O58 P16 1.564509 1_555
O58 Zr6 2.076603 1_555
O59 P17 1.576272 1_555
O59 Zr7 2.062499 1_555
O60 P14 1.530787 1_565
O61 P15 1.535714 1_565
O62 P12 1.535759 1_555
O63 P13 1.536629 1_555
O64 P18 1.537950 1_555
O65 P19 1.538266 1_555
O66 P19 1.559362 1_555
O66 Zr8 2.088472 1_555
O67 P18 1.532981 1_556
O68 P16 1.566189 1_555
O68 Zr8 2.101267 1_555
O69 P17 1.541162 1_555
O70 P14 1.530313 1_555
O71 P15 1.536462 1_555
O72 P21 1.536040 1_555
O73 P20 1.539576 1_555
O74 P18 1.545965 1_555
O75 P19 1.539398 1_555
O76 P16 1.529494 1_555
O77 P17 1.533066 1_555
O78 P16 1.529221 1_555
O79 P17 1.537681 1_555
O80 P22 1.563480 1_555
O80 Zr8 2.177703 1_555
O81 P23 1.536141 1_555
O82 P21 1.535442 1_545
O83 P20 1.536992 1_545
O84 P19 1.564111 1_555
O84 Zr0 2.108859 1_655
O85 P18 1.575694 1_556
O85 Zr1 2.070270 1_655
O86 P20 1.545935 1_555
O87 P21 1.545364 1_555
O88 P0 1.532229 1_655
O89 P1 1.535500 1_655
O90 P22 1.520802 1_555
O91 P23 1.537262 1_555
O92 P21 1.574350 1_545
O92 Zr2 2.060235 1_655
O93 P20 1.568535 1_545
O93 Zr3 2.071055 1_655
O94 P0 1.534945 1_655
O95 P1 1.535196 1_655
