# generated using pymatgen
data_NaBrO3
_symmetry_space_group_name_H-M   'P 1'
_cell_length_a   7.53683031
_cell_length_b   7.74928530
_cell_length_c   7.38742530
_cell_angle_alpha   89.94961561
_cell_angle_beta   89.69588643
_cell_angle_gamma   89.80975002
_symmetry_Int_Tables_number   1
_chemical_formula_structural   NaBrO3
_chemical_formula_sum   'Na4 Br4 O12'
_cell_volume   431.45431561
_cell_formula_units_Z   4
loop_
 _symmetry_equiv_pos_site_id
 _symmetry_equiv_pos_as_xyz
  1  'x, y, z'
loop_
 _atom_site_type_symbol
 _atom_site_label
 _atom_site_symmetry_multiplicity
 _atom_site_fract_x
 _atom_site_fract_y
 _atom_site_fract_z
 _atom_site_occupancy
  Na  Na0  1  0.62906000  0.46074400  0.89871600  1
  Na  Na1  1  0.36971000  0.96156700  0.60212400  1
  Na  Na2  1  0.87037400  0.53969800  0.39686700  1
  Na  Na3  1  0.12960400  0.03915000  0.10278100  1
  Br  Br0  1  0.13621800  0.64645600  0.88086100  1
  Br  Br1  1  0.36639200  0.35237000  0.38140000  1
  Br  Br2  1  0.86719400  0.14763000  0.61745100  1
  Br  Br3  1  0.63395700  0.85374900  0.11957200  1
  O  O0  1  0.28182800  0.13730000  0.36244300  1
  O  O1  1  0.97333500  0.33018900  0.16018900  1
  O  O2  1  0.89592000  0.29084000  0.01358200  1
  O  O3  1  0.40037200  0.20586100  0.98917900  1
  O  O4  1  0.10084500  0.79483700  0.48908300  1
  O  O5  1  0.59386200  0.70006600  0.50725100  1
  O  O6  1  0.21791000  0.86262300  0.86331300  1
  O  O7  1  0.78299700  0.36332200  0.63731700  1
  O  O8  1  0.02613500  0.82919100  0.33937800  1
  O  O9  1  0.53113800  0.67519200  0.66506700  1
  O  O10  1  0.47353100  0.17075300  0.83809700  1
  O  O11  1  0.71962200  0.63846300  0.13532800  1
loop_
_geom_bond_atom_site_label_1
_geom_bond_atom_site_label_2
_geom_bond_distance
_geom_bond_site_symmetry_2
Na0 O11 2.332600 1_556
Na0 O7 2.370229 1_555
Na0 O9 2.507180 1_555
Na0 O2 2.548999 1_556
Na0 O10 2.578649 1_555
Na0 O3 2.706782 1_555
Na1 O0 2.330355 1_565
Na1 O6 2.366359 1_555
Na1 O10 2.511332 1_565
Na1 O4 2.551515 1_555
Na1 O9 2.570521 1_555
Na1 O5 2.723775 1_555
Na2 O7 2.333741 1_555
Na2 O11 2.371633 1_555
Na2 O1 2.505463 1_555
Na2 O5 2.553245 1_555
Na2 O8 2.569380 1_655
Na2 O4 2.725466 1_655
Na3 O6 2.330133 1_544
Na3 O0 2.367723 1_555
Na3 O8 2.509836 1_545
Na3 O3 2.556422 1_554
Na3 O1 2.575330 1_455
Na3 O2 2.706944 1_455
Br0 O6 1.790978 1_555
Br1 O0 1.792182 1_555
Br2 O7 1.791759 1_555
Br3 O11 1.790802 1_555
O1 O2 1.270777 1_555
O4 O8 1.271266 1_555
O5 O9 1.270517 1_555
O10 O3 1.271513 1_555
