# generated using pymatgen
data_Cs3Te22
_symmetry_space_group_name_H-M   'P 1'
_cell_length_a   9.66967100
_cell_length_b   9.68943086
_cell_length_c   12.44682756
_cell_angle_alpha   112.77679635
_cell_angle_beta   112.79169781
_cell_angle_gamma   89.86260610
_symmetry_Int_Tables_number   1
_chemical_formula_structural   Cs3Te22
_chemical_formula_sum   'Cs3 Te22'
_cell_volume   976.23924685
_cell_formula_units_Z   1
loop_
 _symmetry_equiv_pos_site_id
 _symmetry_equiv_pos_as_xyz
  1  'x, y, z'
loop_
 _atom_site_type_symbol
 _atom_site_label
 _atom_site_symmetry_multiplicity
 _atom_site_fract_x
 _atom_site_fract_y
 _atom_site_fract_z
 _atom_site_occupancy
  Cs  Cs0  1  0.17845800  0.17559300  0.35017400  1
  Cs  Cs1  1  0.82708800  0.82916900  0.65134600  1
  Cs  Cs2  1  0.50098000  0.50269000  0.00203800  1
  Te  Te0  1  0.89628200  0.80577600  0.99984700  1
  Te  Te1  1  0.09797600  0.52939000  0.76791000  1
  Te  Te2  1  0.23925500  0.09804800  0.76649700  1
  Te  Te3  1  0.00901100  0.21357500  0.61587200  1
  Te  Te4  1  0.32690500  0.75874200  0.23074600  1
  Te  Te5  1  0.99097400  0.78987500  0.38449900  1
  Te  Te6  1  0.66987000  0.24173700  0.76756700  1
  Te  Te7  1  0.47442200  0.32930900  0.23235900  1
  Te  Te8  1  0.80791700  0.10093100  0.00177900  1
  Te  Te9  1  0.52668700  0.66982400  0.76544000  1
  Te  Te10  1  0.75982700  0.90445900  0.23378200  1
  Te  Te11  1  0.90499200  0.47454900  0.23243500  1
  Te  Te12  1  0.40785300  0.00898000  0.61698400  1
  Te  Te13  1  0.59069200  0.99078800  0.38342700  1
  Te  Te14  1  0.20898000  0.60688700  0.61441700  1
  Te  Te15  1  0.19568000  0.89843500  0.00082800  1
  Te  Te16  1  0.60980600  0.40732600  0.61588500  1
  Te  Te17  1  0.00036200  0.50047100  0.00174500  1
  Te  Te18  1  0.79123500  0.39449300  0.38507300  1
  Te  Te19  1  0.10044400  0.19341400  0.00003200  1
  Te  Te20  1  0.49758100  0.00052500  0.00325300  1
  Te  Te21  1  0.39276400  0.59349500  0.38311500  1
loop_
_geom_bond_atom_site_label_1
_geom_bond_atom_site_label_2
_geom_bond_distance
_geom_bond_site_symmetry_2
Cs0 Te14 4.120692 1_555
Cs0 Te12 4.120911 1_555
Cs0 Te16 4.121208 1_555
Cs0 Te3 4.124309 1_555
Cs0 Te7 4.185945 1_555
Cs0 Te4 4.190536 1_545
Cs0 Te19 4.198490 1_555
Cs0 Te15 4.202893 1_545
Cs0 Te8 4.208490 1_455
Cs0 Te11 4.216494 1_455
Cs0 Te10 4.236469 1_445
Cs0 Te0 4.246126 1_444
Cs0 Te13 4.304493 1_545
Cs0 Te21 4.353753 1_555
Cs0 Te18 4.383605 1_455
Cs0 Te5 4.393878 1_445
Cs1 Te5 4.096820 1_555
Cs1 Te13 4.113209 1_555
Cs1 Te18 4.141508 1_555
Cs1 Te21 4.156763 1_555
Cs1 Te2 4.178397 1_665
Cs1 Te19 4.192329 1_666
Cs1 Te6 4.193008 1_565
Cs1 Te1 4.205425 1_655
Cs1 Te8 4.210033 1_566
Cs1 Te9 4.213484 1_555
Cs1 Te15 4.220760 1_656
Cs1 Te0 4.222194 1_555
Cs1 Te12 4.341891 1_565
Cs1 Te14 4.358556 1_655
Cs1 Te3 4.366841 1_665
Cs1 Te16 4.386573 1_555
Cs2 Te4 3.913595 1_555
Cs2 Te7 3.925306 1_555
Cs2 Te11 3.934545 1_555
Cs2 Te10 3.936812 1_555
Cs2 Te1 3.940266 1_554
Cs2 Te6 3.941660 1_554
Cs2 Te9 3.952019 1_554
Cs2 Te2 3.971313 1_554
Te0 Te8 2.976671 1_566
Te0 Te15 3.027259 1_656
Te0 Te17 3.128256 1_656
Te0 Te10 3.456649 1_556
Te0 Te9 3.462426 1_555
Te1 Te3 2.820070 1_555
Te1 Te14 2.840676 1_555
Te1 Te15 3.457067 1_556
Te1 Te17 3.493088 1_556
Te2 Te3 2.846719 1_555
Te2 Te20 3.501177 1_556
Te3 Te5 3.954533 1_445
Te6 Te8 3.492498 1_556
Te10 Te13 2.826835 1_555
Te10 Te5 2.846014 1_555
Te10 Te20 3.456794 1_565
Te11 Te5 2.814971 1_555
Te11 Te18 2.861022 1_555
Te11 Te17 3.430641 1_655
Te11 Te8 3.479934 1_555
Te12 Te2 2.822427 1_555
Te12 Te6 2.844960 1_555
Te12 Te13 3.897630 1_545
Te12 Te21 3.911776 1_545
Te12 Te5 3.921378 1_445
Te13 Te4 2.852462 1_555
Te13 Te16 3.904173 1_565
Te13 Te3 3.941016 1_665
Te14 Te9 2.826760 1_555
Te14 Te5 3.874799 1_455
Te14 Te21 3.890644 1_555
Te14 Te18 3.906223 1_455
Te15 Te19 3.003261 1_565
Te15 Te20 3.069869 1_565
Te15 Te4 3.436479 1_555
Te16 Te6 2.822665 1_555
Te16 Te9 2.839666 1_555
Te16 Te18 3.869609 1_555
Te16 Te21 3.920476 1_555
Te17 Te19 3.121207 1_555
Te17 Te4 3.449509 1_555
Te17 Te6 3.486740 1_454
Te18 Te7 2.822247 1_555
Te18 Te3 3.867113 1_655
Te19 Te8 2.979863 1_455
Te19 Te2 3.470159 1_554
Te19 Te7 3.485097 1_555
Te20 Te8 3.165815 1_555
Te20 Te7 3.433394 1_555
Te20 Te9 3.522168 1_544
Te21 Te4 2.824280 1_555
Te21 Te7 2.848897 1_555
