# generated using pymatgen
data_KMoCl4O
_symmetry_space_group_name_H-M   'P 1'
_cell_length_a   9.29994500
_cell_length_b   6.88229500
_cell_length_c   23.90064313
_cell_angle_alpha   86.69993821
_cell_angle_beta   90.00000000
_cell_angle_gamma   90.00000000
_symmetry_Int_Tables_number   1
_chemical_formula_structural   KMoCl4O
_chemical_formula_sum   'K8 Mo8 Cl32 O8'
_cell_volume   1527.22310929
_cell_formula_units_Z   8
loop_
 _symmetry_equiv_pos_site_id
 _symmetry_equiv_pos_as_xyz
  1  'x, y, z'
loop_
 _atom_site_type_symbol
 _atom_site_label
 _atom_site_symmetry_multiplicity
 _atom_site_fract_x
 _atom_site_fract_y
 _atom_site_fract_z
 _atom_site_occupancy
  K  K0  1  0.48489200  0.24689300  0.23679100  1
  K  K1  1  0.98489200  0.75310700  0.26320900  1
  K  K2  1  0.28293700  0.19076600  0.46591500  1
  K  K3  1  0.01510800  0.24689300  0.73679100  1
  K  K4  1  0.78293700  0.80923400  0.03408500  1
  K  K5  1  0.71706300  0.80923400  0.53408500  1
  K  K6  1  0.51510800  0.75310700  0.76320900  1
  K  K7  1  0.21706300  0.19076600  0.96591500  1
  Mo  Mo0  1  0.98181400  0.72455300  0.86406400  1
  Mo  Mo1  1  0.38739900  0.77429100  0.12129500  1
  Mo  Mo2  1  0.88739900  0.22570900  0.37870500  1
  Mo  Mo3  1  0.48181400  0.27544700  0.63593600  1
  Mo  Mo4  1  0.01818600  0.27544700  0.13593600  1
  Mo  Mo5  1  0.11260100  0.77429100  0.62129500  1
  Mo  Mo6  1  0.61260100  0.22570900  0.87870500  1
  Mo  Mo7  1  0.51818600  0.72455300  0.36406400  1
  Cl  Cl0  1  0.57013700  0.23831400  0.97648800  1
  Cl  Cl1  1  0.35570900  0.87332800  0.59740500  1
  Cl  Cl2  1  0.80186000  0.34919800  0.28934500  1
  Cl  Cl3  1  0.58939800  0.56024200  0.13415000  1
  Cl  Cl4  1  0.42986300  0.76168600  0.02351200  1
  Cl  Cl5  1  0.91060200  0.56024200  0.63415000  1
  Cl  Cl6  1  0.92942300  0.27044400  0.04199200  1
  Cl  Cl7  1  0.30186000  0.65080200  0.21065500  1
  Cl  Cl8  1  0.35845200  0.15575200  0.71840300  1
  Cl  Cl9  1  0.57057700  0.27044400  0.54199200  1
  Cl  Cl10  1  0.85570900  0.12667200  0.90259500  1
  Cl  Cl11  1  0.14429100  0.87332800  0.09740500  1
  Cl  Cl12  1  0.64429100  0.12667200  0.40259500  1
  Cl  Cl13  1  0.69814000  0.34919800  0.78934500  1
  Cl  Cl14  1  0.92986300  0.23831400  0.47648800  1
  Cl  Cl15  1  0.41060200  0.43975800  0.86585000  1
  Cl  Cl16  1  0.24656500  0.36740500  0.09461800  1
  Cl  Cl17  1  0.16950200  0.95288100  0.84054100  1
  Cl  Cl18  1  0.74656500  0.63259500  0.40538200  1
  Cl  Cl19  1  0.25343500  0.36740500  0.59461800  1
  Cl  Cl20  1  0.66950200  0.04711900  0.65945900  1
  Cl  Cl21  1  0.19814000  0.65080200  0.71065500  1
  Cl  Cl22  1  0.08939800  0.43975800  0.36585000  1
  Cl  Cl23  1  0.64154800  0.84424800  0.28159700  1
  Cl  Cl24  1  0.07057700  0.72955600  0.95800800  1
  Cl  Cl25  1  0.14154800  0.15575200  0.21840300  1
  Cl  Cl26  1  0.33049800  0.95288100  0.34054100  1
  Cl  Cl27  1  0.83049800  0.04711900  0.15945900  1
  Cl  Cl28  1  0.75343500  0.63259500  0.90538200  1
  Cl  Cl29  1  0.85845200  0.84424800  0.78159700  1
  Cl  Cl30  1  0.42942300  0.72955600  0.45800800  1
  Cl  Cl31  1  0.07013700  0.76168600  0.52351200  1
  O  O0  1  0.95356900  0.49122600  0.15676700  1
  O  O1  1  0.54002700  0.00946800  0.86281000  1
  O  O2  1  0.95997300  0.00946800  0.36281000  1
  O  O3  1  0.54643100  0.49122600  0.65676700  1
  O  O4  1  0.04002700  0.99053200  0.63719000  1
  O  O5  1  0.45997300  0.99053200  0.13719000  1
  O  O6  1  0.45356900  0.50877400  0.34323300  1
  O  O7  1  0.04643100  0.50877400  0.84323300  1
loop_
_geom_bond_atom_site_label_1
_geom_bond_atom_site_label_2
_geom_bond_distance
_geom_bond_site_symmetry_2
K0 O5 3.052395 1_545
K0 O6 3.214544 1_555
K1 O2 3.052395 1_565
K1 O0 3.214544 1_555
K2 O6 3.894491 1_555
K3 O4 3.052395 1_545
K3 O7 3.214544 1_555
K4 O0 3.894491 1_555
K5 O3 3.894491 1_555
K6 O1 3.052395 1_565
K6 O3 3.214544 1_555
K7 O7 3.894491 1_555
Mo0 O7 1.702796 1_655
Mo1 O5 1.696996 1_555
Mo2 O2 1.696996 1_555
Mo3 O3 1.702796 1_555
Mo4 O0 1.702796 1_455
Mo5 O4 1.696996 1_555
Mo6 O1 1.696996 1_555
Mo7 O6 1.702796 1_555
Cl0 Mo6 2.376710 1_555
Cl0 Cl15 3.270124 1_555
Cl0 Cl10 3.304386 1_555
Cl0 K7 3.310935 1_555
Cl0 K4 3.750214 1_546
Cl1 Mo5 2.420212 1_555
Cl1 Mo3 3.189979 1_565
Cl1 Cl31 3.304386 1_555
Cl1 Cl21 3.367794 1_555
Cl1 O3 3.412471 1_555
Cl1 K5 3.722262 1_555
Cl1 K2 3.783783 1_565
Cl2 Mo2 2.389067 1_555
Cl2 K1 3.288637 1_555
Cl2 K0 3.296168 1_555
Cl2 Cl22 3.318718 1_655
Cl3 Mo1 2.396146 1_555
Cl3 Cl4 3.270124 1_555
Cl3 K0 3.317284 1_555
Cl3 Cl7 3.318718 1_555
Cl3 K4 3.379969 1_555
Cl4 Mo1 2.376710 1_555
Cl4 K4 3.310935 1_555
Cl4 K7 3.750214 1_564
Cl5 Mo5 2.396146 1_655
Cl5 K3 3.317284 1_655
Cl5 K5 3.379969 1_555
Cl6 Mo4 2.394367 1_655
Cl6 K7 3.298105 1_654
Cl6 K4 3.469310 1_545
Cl6 K4 3.944746 1_555
Cl7 Mo1 2.389067 1_555
Cl7 K0 3.288637 1_555
Cl7 K1 3.296168 1_455
Cl8 Mo3 2.385954 1_555
Cl8 O3 3.188329 1_555
Cl8 K6 3.256809 1_545
Cl8 K3 3.288480 1_555
Cl9 Mo3 2.394367 1_555
Cl9 K2 3.298105 1_555
Cl9 K5 3.469310 1_545
Cl9 K5 3.944746 1_555
Cl10 Mo6 2.420212 1_555
Cl10 Mo0 3.189979 1_545
Cl10 Cl13 3.367794 1_555
Cl10 O7 3.412471 1_655
Cl10 K7 3.722262 1_655
Cl10 K4 3.783783 1_546
Cl11 Mo1 2.420212 1_555
Cl11 Mo4 3.189979 1_565
Cl11 Cl4 3.304386 1_555
Cl11 Cl7 3.367794 1_555
Cl11 O0 3.412471 1_455
Cl11 K4 3.722262 1_455
Cl11 K7 3.783783 1_564
Cl12 Mo2 2.420212 1_555
Cl12 Mo7 3.189979 1_545
Cl12 Cl14 3.304386 1_555
Cl12 Cl2 3.367794 1_555
Cl12 O6 3.412471 1_555
Cl12 K2 3.722262 1_555
Cl12 K5 3.783783 1_545
Cl13 Mo6 2.389067 1_555
Cl13 K6 3.288637 1_555
Cl13 K3 3.296168 1_655
Cl13 Cl15 3.318718 1_555
Cl14 Mo2 2.376710 1_555
Cl14 Cl22 3.270124 1_655
Cl14 K2 3.310935 1_655
Cl14 K5 3.750214 1_545
Cl15 Mo6 2.396146 1_555
Cl15 K6 3.317284 1_555
Cl15 K7 3.379969 1_555
Cl16 Mo4 2.411389 1_555
Cl16 Mo1 3.188929 1_555
Cl16 Cl6 3.289828 1_455
Cl16 Cl25 3.366379 1_555
Cl16 O5 3.376088 1_545
Cl16 K7 3.383192 1_554
Cl17 Mo0 2.393838 1_455
Cl17 Cl24 3.254871 1_555
Cl17 Cl29 3.321587 1_455
Cl17 K3 3.424520 1_565
Cl17 K7 3.524201 1_565
Cl18 Mo7 2.411389 1_555
Cl18 Mo2 3.188929 1_555
Cl18 Cl30 3.289828 1_555
Cl18 Cl23 3.366379 1_555
Cl18 O2 3.376088 1_565
Cl18 K5 3.383192 1_555
Cl19 Mo3 2.411389 1_555
Cl19 Mo5 3.188929 1_555
Cl19 Cl9 3.289828 1_555
Cl19 Cl8 3.366379 1_555
Cl19 O4 3.376088 1_545
Cl19 K2 3.383192 1_555
Cl20 Mo3 2.393838 1_555
Cl20 Cl9 3.254871 1_555
Cl20 Cl8 3.321587 1_555
Cl20 K6 3.424520 1_545
Cl20 K5 3.524201 1_545
Cl21 Mo5 2.389067 1_555
Cl21 K3 3.288637 1_555
Cl21 K6 3.296168 1_555
Cl21 Cl5 3.318718 1_455
Cl22 Mo2 2.396146 1_455
Cl22 K1 3.317284 1_455
Cl22 K2 3.379969 1_555
Cl23 Mo7 2.385954 1_555
Cl23 O6 3.188329 1_555
Cl23 K0 3.256809 1_565
Cl23 K1 3.288480 1_555
Cl23 Cl26 3.321587 1_555
Cl24 Mo0 2.394367 1_455
Cl24 Cl28 3.289828 1_455
Cl24 K4 3.298105 1_456
Cl24 K7 3.469310 1_565
Cl24 K7 3.944746 1_555
Cl25 Mo4 2.385954 1_555
Cl25 O0 3.188329 1_455
Cl25 K1 3.256809 1_445
Cl25 K0 3.288480 1_555
Cl25 Cl27 3.321587 1_455
Cl26 Mo7 2.393838 1_555
Cl26 Cl30 3.254871 1_555
Cl26 K0 3.424520 1_565
Cl26 K2 3.524201 1_565
Cl27 Mo4 2.393838 1_655
Cl27 Cl6 3.254871 1_555
Cl27 K1 3.424520 1_545
Cl27 K4 3.524201 1_545
Cl28 Mo0 2.411389 1_555
Cl28 Mo6 3.188929 1_555
Cl28 Cl29 3.366379 1_555
Cl28 O1 3.376088 1_565
Cl28 K4 3.383192 1_556
Cl29 Mo0 2.385954 1_555
Cl29 O7 3.188329 1_655
Cl29 K3 3.256809 1_665
Cl29 K6 3.288480 1_555
Cl30 Mo7 2.394367 1_555
Cl30 K5 3.298105 1_555
Cl30 K2 3.469310 1_565
Cl30 K2 3.944746 1_555
Cl31 Mo5 2.376710 1_555
Cl31 Cl5 3.270124 1_455
Cl31 K5 3.310935 1_455
Cl31 K2 3.750214 1_565
