# generated using pymatgen
data_Sn14Sb11Pt8
_symmetry_space_group_name_H-M   'P 1'
_cell_length_a   9.41731454
_cell_length_b   9.45401931
_cell_length_c   9.51113784
_cell_angle_alpha   90.40655419
_cell_angle_beta   90.36540852
_cell_angle_gamma   90.22219525
_symmetry_Int_Tables_number   1
_chemical_formula_structural   Sn14Sb11Pt8
_chemical_formula_sum   'Sn14 Sb11 Pt8'
_cell_volume   846.74556090
_cell_formula_units_Z   1
loop_
 _symmetry_equiv_pos_site_id
 _symmetry_equiv_pos_as_xyz
  1  'x, y, z'
loop_
 _atom_site_type_symbol
 _atom_site_label
 _atom_site_symmetry_multiplicity
 _atom_site_fract_x
 _atom_site_fract_y
 _atom_site_fract_z
 _atom_site_occupancy
  Sn  Sn0  1  0.15243865  0.33212032  0.99871630  1
  Sn  Sn1  1  0.65100566  0.16423414  0.49633811  1
  Sn  Sn2  1  0.33597332  0.84443940  0.49670060  1
  Sn  Sn3  1  0.34074622  0.99542071  0.84726211  1
  Sn  Sn4  1  0.65963646  0.99640885  0.15340851  1
  Sn  Sn5  1  0.49444468  0.66320957  0.86589607  1
  Sn  Sn6  1  0.49962827  0.65030009  0.17122665  1
  Sn  Sn7  1  0.15761196  0.49374832  0.65362967  1
  Sn  Sn8  1  0.66687015  0.85712927  0.48907871  1
  Sn  Sn9  1  0.84573944  0.49104219  0.65514726  1
  Sn  Sn10  1  0.52781460  0.58553670  0.56590672  1
  Sn  Sn11  1  0.84542029  0.33737322  0.99881327  1
  Sn  Sn12  1  -0.00029168  0.84833614  0.33837618  1
  Sn  Sn13  1  0.99706757  0.15387062  0.33889800  1
  Sb  Sb0  1  0.99654755  0.84230821  0.65039282  1
  Sb  Sb1  1  0.15221186  0.64677201  0.99519503  1
  Sb  Sb2  1  0.84742610  0.49771725  0.34609990  1
  Sb  Sb3  1  0.49842529  0.34616340  0.84194601  1
  Sb  Sb4  1  0.84274705  0.64943771  0.99387257  1
  Sb  Sb5  1  0.65383760  0.99437729  0.84593619  1
  Sb  Sb6  1  0.34283021  0.99448869  0.15290959  1
  Sb  Sb7  1  0.49918537  0.34470581  0.15330935  1
  Sb  Sb8  1  0.16050600  0.49649183  0.34721879  1
  Sb  Sb9  1  0.34524700  0.15451009  0.50003771  1
  Sb  Sb10  1  0.99683297  0.15267082  0.65404445  1
  Pt  Pt0  1  0.25103272  0.24675182  0.24943503  1
  Pt  Pt1  1  0.24582909  0.74701923  0.74811391  1
  Pt  Pt2  1  0.25010536  0.24425927  0.74979913  1
  Pt  Pt3  1  0.24474154  0.74586466  0.24596363  1
  Pt  Pt4  1  0.74626699  0.24343788  0.75090957  1
  Pt  Pt5  1  0.75500841  0.74487123  0.24418522  1
  Pt  Pt6  1  0.74724486  0.25150223  0.24736781  1
  Pt  Pt7  1  0.74506647  0.74408105  0.74366413  1
loop_
_geom_bond_atom_site_label_1
_geom_bond_atom_site_label_2
_geom_bond_distance
_geom_bond_site_symmetry_2
Sn0 Sn11 2.891913 1_455
Sn1 Sn8 2.908148 1_545
Sn2 Sn8 3.119327 1_555
Sn2 Sn3 3.617545 1_555
Sn3 Sn5 3.468505 1_555
Sn4 Sn8 3.462483 1_555
Sn5 Sn6 2.907577 1_556
Sn7 Sn9 2.937142 1_455
Sn10 Sn5 2.960144 1_555
Sn10 Sn8 2.975627 1_555
Sn10 Sn2 3.119337 1_555
Sn10 Sn9 3.237533 1_555
Sn10 Sn7 3.691539 1_555
Sn10 Sn6 3.815488 1_555
Sn11 Sn9 3.586390 1_555
Sn12 Sn13 2.888702 1_465
Sn12 Sn8 3.455976 1_455
Sn12 Sn2 3.498267 1_555
Sb0 Sb10 2.934124 1_565
Sb0 Sn12 2.968921 1_655
Sb0 Sn8 3.458082 1_555
Sb0 Sn2 3.523383 1_655
Sb0 Sn9 3.607439 1_555
Sb1 Sb4 2.914482 1_455
Sb1 Sn0 2.975158 1_555
Sb1 Sn5 3.460212 1_555
Sb1 Sn7 3.547586 1_555
Sb1 Sb8 3.646883 1_556
Sb2 Sn9 2.940660 1_555
Sb2 Sb8 2.948391 1_655
Sb2 Sn13 3.548445 1_555
Sb2 Sn10 3.767542 1_555
Sb3 Sb7 2.961513 1_556
Sb3 Sn5 3.004789 1_555
Sb3 Sn10 3.489936 1_555
Sb3 Sn11 3.585090 1_555
Sb3 Sn0 3.594247 1_555
Sb3 Sn3 3.628781 1_545
Sb3 Sb5 3.639121 1_545
Sb4 Sn11 2.951174 1_555
Sb4 Sn5 3.494574 1_555
Sb4 Sn9 3.543354 1_555
Sb5 Sn4 2.924499 1_556
Sb5 Sn3 2.948642 1_555
Sb5 Sn5 3.473779 1_555
Sb5 Sn8 3.628056 1_555
Sb6 Sn3 2.907073 1_554
Sb6 Sn4 2.983422 1_555
Sb6 Sn2 3.574380 1_555
Sb6 Sb7 3.618356 1_565
Sb7 Sn6 2.892894 1_555
Sb7 Sn0 3.573843 1_554
Sb7 Sn11 3.585665 1_554
Sb7 Sn4 3.628273 1_545
Sb8 Sn7 2.914916 1_555
Sb8 Sn13 3.580987 1_455
Sb8 Sn0 3.651070 1_554
Sb8 Sn12 3.661433 1_555
Sb8 Sn10 4.106197 1_555
Sb9 Sn1 2.880983 1_555
Sb9 Sn2 2.932317 1_545
Sb10 Sn13 2.997518 1_555
Sb10 Sn9 3.506161 1_555
Sb10 Sn7 3.557059 1_655
Pt0 Sb8 2.675978 1_555
Pt0 Sb7 2.679029 1_555
Pt0 Sn0 2.684169 1_554
Pt0 Sn13 2.689877 1_455
Pt0 Sb9 2.690234 1_555
Pt0 Sb6 2.696845 1_545
Pt1 Sn3 2.672967 1_555
Pt1 Sn7 2.678722 1_555
Pt1 Sb0 2.680843 1_455
Pt1 Sb1 2.692513 1_555
Pt1 Sn2 2.708869 1_555
Pt1 Sn5 2.712548 1_555
Pt1 Sn10 3.526825 1_555
Pt2 Sb3 2.666323 1_555
Pt2 Sn0 2.673331 1_555
Pt2 Sn3 2.675579 1_545
Pt2 Sb9 2.677728 1_555
Pt2 Sn7 2.682366 1_555
Pt2 Sb10 2.685738 1_455
Pt3 Sn12 2.658382 1_555
Pt3 Sn6 2.666962 1_555
Pt3 Sb8 2.672522 1_555
Pt3 Sb6 2.680399 1_555
Pt3 Sn2 2.688866 1_555
Pt3 Sb1 2.694637 1_554
Pt4 Sb5 2.672663 1_545
Pt4 Sn11 2.675028 1_555
Pt4 Sn1 2.677567 1_555
Pt4 Sb3 2.678036 1_555
Pt4 Sb10 2.680551 1_555
Pt4 Sn9 2.685300 1_555
Pt5 Sn12 2.648292 1_655
Pt5 Sn6 2.649176 1_555
Pt5 Sb4 2.676776 1_554
Pt5 Sb2 2.682146 1_555
Pt5 Sn8 2.690155 1_555
Pt5 Sn4 2.691283 1_555
Pt6 Sb7 2.652241 1_555
Pt6 Sb2 2.670362 1_555
Pt6 Sn13 2.673377 1_555
Pt6 Sn11 2.674287 1_554
Pt6 Sn1 2.675588 1_555
Pt6 Sn4 2.690722 1_545
Pt7 Sb5 2.697677 1_555
Pt7 Sb0 2.698058 1_555
Pt7 Sb4 2.705321 1_555
Pt7 Sn9 2.707323 1_555
Pt7 Sn5 2.745942 1_555
Pt7 Sn8 2.750960 1_555
Pt7 Sn10 3.031004 1_555
