# generated using pymatgen
data_Nd2InRh2
_symmetry_space_group_name_H-M   'P 1'
_cell_length_a   15.17350800
_cell_length_b   15.17350800
_cell_length_c   8.00677400
_cell_angle_alpha   90.00000000
_cell_angle_beta   90.00000000
_cell_angle_gamma   90.00000000
_symmetry_Int_Tables_number   1
_chemical_formula_structural   Nd2InRh2
_chemical_formula_sum   'Nd32 In16 Rh32'
_cell_volume   1843.44237444
_cell_formula_units_Z   16
loop_
 _symmetry_equiv_pos_site_id
 _symmetry_equiv_pos_as_xyz
  1  'x, y, z'
loop_
 _atom_site_type_symbol
 _atom_site_label
 _atom_site_symmetry_multiplicity
 _atom_site_fract_x
 _atom_site_fract_y
 _atom_site_fract_z
 _atom_site_occupancy
  Nd  Nd0_0  1  0.33650250  0.08650250  0.25000000  1
  Nd  Nd0_1  1  0.33650250  0.08650250  0.75000000  1
  Nd  Nd0_2  1  0.33650250  0.58650250  0.25000000  1
  Nd  Nd0_3  1  0.33650250  0.58650250  0.75000000  1
  Nd  Nd0_4  1  0.83650250  0.08650250  0.25000000  1
  Nd  Nd0_5  1  0.83650250  0.08650250  0.75000000  1
  Nd  Nd0_6  1  0.83650250  0.58650250  0.25000000  1
  Nd  Nd0_7  1  0.83650250  0.58650250  0.75000000  1
  Nd  Nd1_0  1  0.16349750  0.41349750  0.25000000  1
  Nd  Nd1_1  1  0.16349750  0.41349750  0.75000000  1
  Nd  Nd1_2  1  0.16349750  0.91349750  0.25000000  1
  Nd  Nd1_3  1  0.16349750  0.91349750  0.75000000  1
  Nd  Nd1_4  1  0.66349750  0.41349750  0.25000000  1
  Nd  Nd1_5  1  0.66349750  0.41349750  0.75000000  1
  Nd  Nd1_6  1  0.66349750  0.91349750  0.25000000  1
  Nd  Nd1_7  1  0.66349750  0.91349750  0.75000000  1
  Nd  Nd2_0  1  0.41349750  0.33650250  0.25000000  1
  Nd  Nd2_1  1  0.41349750  0.33650250  0.75000000  1
  Nd  Nd2_2  1  0.41349750  0.83650250  0.25000000  1
  Nd  Nd2_3  1  0.41349750  0.83650250  0.75000000  1
  Nd  Nd2_4  1  0.91349750  0.33650250  0.25000000  1
  Nd  Nd2_5  1  0.91349750  0.33650250  0.75000000  1
  Nd  Nd2_6  1  0.91349750  0.83650250  0.25000000  1
  Nd  Nd2_7  1  0.91349750  0.83650250  0.75000000  1
  Nd  Nd3_0  1  0.08650250  0.16349750  0.25000000  1
  Nd  Nd3_1  1  0.08650250  0.16349750  0.75000000  1
  Nd  Nd3_2  1  0.08650250  0.66349750  0.25000000  1
  Nd  Nd3_3  1  0.08650250  0.66349750  0.75000000  1
  Nd  Nd3_4  1  0.58650250  0.16349750  0.25000000  1
  Nd  Nd3_5  1  0.58650250  0.16349750  0.75000000  1
  Nd  Nd3_6  1  0.58650250  0.66349750  0.25000000  1
  Nd  Nd3_7  1  0.58650250  0.66349750  0.75000000  1
  In  In0_0  1  0.25000000  0.25000000  0.00000000  1
  In  In0_1  1  0.25000000  0.25000000  0.50000000  1
  In  In0_2  1  0.25000000  0.75000000  0.00000000  1
  In  In0_3  1  0.25000000  0.75000000  0.50000000  1
  In  In0_4  1  0.75000000  0.25000000  0.00000000  1
  In  In0_5  1  0.75000000  0.25000000  0.50000000  1
  In  In0_6  1  0.75000000  0.75000000  0.00000000  1
  In  In0_7  1  0.75000000  0.75000000  0.50000000  1
  In  In1_0  1  0.00000000  0.00000000  0.00000000  1
  In  In1_1  1  0.00000000  0.00000000  0.50000000  1
  In  In1_2  1  0.00000000  0.50000000  0.00000000  1
  In  In1_3  1  0.00000000  0.50000000  0.50000000  1
  In  In1_4  1  0.50000000  0.00000000  0.00000000  1
  In  In1_5  1  0.50000000  0.00000000  0.50000000  1
  In  In1_6  1  0.50000000  0.50000000  0.00000000  1
  In  In1_7  1  0.50000000  0.50000000  0.50000000  1
  Rh  Rh0_0  1  0.18493100  0.06506900  0.00000000  1
  Rh  Rh0_1  1  0.18493100  0.06506900  0.50000000  1
  Rh  Rh0_2  1  0.18493100  0.56506900  0.00000000  1
  Rh  Rh0_3  1  0.18493100  0.56506900  0.50000000  1
  Rh  Rh0_4  1  0.68493100  0.06506900  0.00000000  1
  Rh  Rh0_5  1  0.68493100  0.06506900  0.50000000  1
  Rh  Rh0_6  1  0.68493100  0.56506900  0.00000000  1
  Rh  Rh0_7  1  0.68493100  0.56506900  0.50000000  1
  Rh  Rh1_0  1  0.06506900  0.31506900  0.00000000  1
  Rh  Rh1_1  1  0.06506900  0.31506900  0.50000000  1
  Rh  Rh1_2  1  0.06506900  0.81506900  0.00000000  1
  Rh  Rh1_3  1  0.06506900  0.81506900  0.50000000  1
  Rh  Rh1_4  1  0.56506900  0.31506900  0.00000000  1
  Rh  Rh1_5  1  0.56506900  0.31506900  0.50000000  1
  Rh  Rh1_6  1  0.56506900  0.81506900  0.00000000  1
  Rh  Rh1_7  1  0.56506900  0.81506900  0.50000000  1
  Rh  Rh2_0  1  0.43493100  0.18493100  0.00000000  1
  Rh  Rh2_1  1  0.43493100  0.18493100  0.50000000  1
  Rh  Rh2_2  1  0.43493100  0.68493100  0.00000000  1
  Rh  Rh2_3  1  0.43493100  0.68493100  0.50000000  1
  Rh  Rh2_4  1  0.93493100  0.18493100  0.00000000  1
  Rh  Rh2_5  1  0.93493100  0.18493100  0.50000000  1
  Rh  Rh2_6  1  0.93493100  0.68493100  0.00000000  1
  Rh  Rh2_7  1  0.93493100  0.68493100  0.50000000  1
  Rh  Rh3_0  1  0.31506900  0.43493100  0.00000000  1
  Rh  Rh3_1  1  0.31506900  0.43493100  0.50000000  1
  Rh  Rh3_2  1  0.31506900  0.93493100  0.00000000  1
  Rh  Rh3_3  1  0.31506900  0.93493100  0.50000000  1
  Rh  Rh3_4  1  0.81506900  0.43493100  0.00000000  1
  Rh  Rh3_5  1  0.81506900  0.43493100  0.50000000  1
  Rh  Rh3_6  1  0.81506900  0.93493100  0.00000000  1
  Rh  Rh3_7  1  0.81506900  0.93493100  0.50000000  1
loop_
_geom_bond_atom_site_label_1
_geom_bond_atom_site_label_2
_geom_bond_distance
_geom_bond_site_symmetry_2
Nd0_0 Rh2_0 2.909965 1_555
Nd0_0 Rh2_1 2.909965 1_555
Nd0_0 Rh3_2 3.066261 1_545
Nd0_0 Rh3_3 3.066261 1_545
Nd0_0 Rh0_1 3.066261 1_555
Nd0_0 Rh0_0 3.066261 1_555
Nd0_1 Rh2_0 2.909965 1_556
Nd0_1 Rh2_1 2.909965 1_555
Nd0_1 Rh3_3 3.066261 1_545
Nd0_1 Rh3_2 3.066261 1_546
Nd0_1 Rh0_1 3.066261 1_555
Nd0_1 Rh0_0 3.066261 1_556
Nd0_2 Rh2_2 2.909965 1_555
Nd0_2 Rh2_3 2.909965 1_555
Nd0_2 Rh0_2 3.066261 1_555
Nd0_2 Rh0_3 3.066261 1_555
Nd0_2 Rh3_0 3.066261 1_555
Nd0_2 Rh3_1 3.066261 1_555
Nd0_3 Rh2_2 2.909965 1_556
Nd0_3 Rh2_3 2.909965 1_555
Nd0_3 Rh0_2 3.066261 1_556
Nd0_3 Rh0_3 3.066261 1_555
Nd0_3 Rh3_0 3.066261 1_556
Nd0_3 Rh3_1 3.066261 1_555
Nd0_4 Rh2_4 2.909965 1_555
Nd0_4 Rh2_5 2.909965 1_555
Nd0_4 Rh3_6 3.066261 1_545
Nd0_4 Rh3_7 3.066261 1_545
Nd0_4 Rh0_4 3.066261 1_555
Nd0_4 Rh0_5 3.066261 1_555
Nd0_5 Rh2_4 2.909965 1_556
Nd0_5 Rh2_5 2.909965 1_555
Nd0_5 Rh3_6 3.066261 1_546
Nd0_5 Rh3_7 3.066261 1_545
Nd0_5 Rh0_4 3.066261 1_556
Nd0_5 Rh0_5 3.066261 1_555
Nd0_6 Rh2_7 2.909965 1_555
Nd0_6 Rh2_6 2.909965 1_555
Nd0_6 Rh0_7 3.066261 1_555
Nd0_6 Rh3_5 3.066261 1_555
Nd0_6 Rh3_4 3.066261 1_555
Nd0_6 Rh0_6 3.066261 1_555
Nd0_7 Rh2_7 2.909965 1_555
Nd0_7 Rh2_6 2.909965 1_556
Nd0_7 Rh0_7 3.066261 1_555
Nd0_7 Rh3_5 3.066261 1_555
Nd0_7 Rh3_4 3.066261 1_556
Nd0_7 Rh0_6 3.066261 1_556
Nd1_0 Rh1_0 2.909965 1_555
Nd1_0 Rh1_1 2.909965 1_555
Nd1_0 Rh3_0 3.066261 1_555
Nd1_0 Rh3_1 3.066261 1_555
Nd1_0 Rh0_2 3.066261 1_555
Nd1_0 Rh0_3 3.066261 1_555
Nd1_1 Rh1_0 2.909965 1_556
Nd1_1 Rh1_1 2.909965 1_555
Nd1_1 Rh3_0 3.066261 1_556
Nd1_1 Rh3_1 3.066261 1_555
Nd1_1 Rh0_2 3.066261 1_556
Nd1_1 Rh0_3 3.066261 1_555
Nd1_2 Rh1_3 2.909965 1_555
Nd1_2 Rh1_2 2.909965 1_555
Nd1_2 Rh3_2 3.066261 1_555
Nd1_2 Rh3_3 3.066261 1_555
Nd1_2 Rh0_0 3.066261 1_565
Nd1_2 Rh0_1 3.066261 1_565
Nd1_3 Rh1_3 2.909965 1_555
Nd1_3 Rh1_2 2.909965 1_556
Nd1_3 Rh3_2 3.066261 1_556
Nd1_3 Rh3_3 3.066261 1_555
Nd1_3 Rh0_0 3.066261 1_566
Nd1_3 Rh0_1 3.066261 1_565
Nd1_4 Rh1_4 2.909965 1_555
Nd1_4 Rh1_5 2.909965 1_555
Nd1_4 Rh3_4 3.066261 1_555
Nd1_4 Rh3_5 3.066261 1_555
Nd1_4 Rh0_7 3.066261 1_555
Nd1_4 Rh0_6 3.066261 1_555
Nd1_5 Rh1_4 2.909965 1_556
Nd1_5 Rh1_5 2.909965 1_555
Nd1_5 Rh3_4 3.066261 1_556
Nd1_5 Rh3_5 3.066261 1_555
Nd1_5 Rh0_7 3.066261 1_555
Nd1_5 Rh0_6 3.066261 1_556
Nd1_6 Rh1_7 2.909965 1_555
Nd1_6 Rh1_6 2.909965 1_555
Nd1_6 Rh3_7 3.066261 1_555
Nd1_6 Rh3_6 3.066261 1_555
Nd1_6 Rh0_4 3.066261 1_565
Nd1_6 Rh0_5 3.066261 1_565
Nd1_7 Rh1_6 2.909965 1_556
Nd1_7 Rh1_7 2.909965 1_555
Nd1_7 Rh3_6 3.066261 1_556
Nd1_7 Rh3_7 3.066261 1_555
Nd1_7 Rh0_4 3.066261 1_566
Nd1_7 Rh0_5 3.066261 1_565
Nd2_0 Rh3_1 2.909965 1_555
Nd2_0 Rh3_0 2.909965 1_555
Nd2_0 Rh1_4 3.066261 1_555
Nd2_0 Rh1_5 3.066261 1_555
Nd2_0 Rh2_0 3.066261 1_555
Nd2_0 Rh2_1 3.066261 1_555
Nd2_1 Rh3_0 2.909965 1_556
Nd2_1 Rh3_1 2.909965 1_555
Nd2_1 Rh1_4 3.066261 1_556
Nd2_1 Rh1_5 3.066261 1_555
Nd2_1 Rh2_0 3.066261 1_556
Nd2_1 Rh2_1 3.066261 1_555
Nd2_2 Rh3_2 2.909965 1_555
Nd2_2 Rh3_3 2.909965 1_555
Nd2_2 Rh1_6 3.066261 1_555
Nd2_2 Rh1_7 3.066261 1_555
Nd2_2 Rh2_3 3.066261 1_555
Nd2_2 Rh2_2 3.066261 1_555
Nd2_3 Rh3_2 2.909965 1_556
Nd2_3 Rh3_3 2.909965 1_555
Nd2_3 Rh1_6 3.066261 1_556
Nd2_3 Rh1_7 3.066261 1_555
Nd2_3 Rh2_3 3.066261 1_555
Nd2_3 Rh2_2 3.066261 1_556
Nd2_4 Rh3_5 2.909965 1_555
Nd2_4 Rh3_4 2.909965 1_555
Nd2_4 Rh1_0 3.066261 1_655
Nd2_4 Rh1_1 3.066261 1_655
Nd2_4 Rh2_4 3.066261 1_555
Nd2_4 Rh2_5 3.066261 1_555
Nd2_5 Rh3_5 2.909965 1_555
Nd2_5 Rh3_4 2.909965 1_556
Nd2_5 Rh1_0 3.066261 1_656
Nd2_5 Rh1_1 3.066261 1_655
Nd2_5 Rh2_5 3.066261 1_555
Nd2_5 Rh2_4 3.066261 1_556
Nd2_6 Rh3_6 2.909965 1_555
Nd2_6 Rh3_7 2.909965 1_555
Nd2_6 Rh1_2 3.066261 1_655
Nd2_6 Rh1_3 3.066261 1_655
Nd2_6 Rh2_6 3.066261 1_555
Nd2_6 Rh2_7 3.066261 1_555
Nd2_7 Rh3_7 2.909965 1_555
Nd2_7 Rh3_6 2.909965 1_556
Nd2_7 Rh1_2 3.066261 1_656
Nd2_7 Rh1_3 3.066261 1_655
Nd2_7 Rh2_6 3.066261 1_556
Nd2_7 Rh2_7 3.066261 1_555
Nd3_0 Rh0_1 2.909965 1_555
Nd3_0 Rh0_0 2.909965 1_555
Nd3_0 Rh1_0 3.066261 1_555
Nd3_0 Rh1_1 3.066261 1_555
Nd3_0 Rh2_5 3.066261 1_455
Nd3_0 Rh2_4 3.066261 1_455
Nd3_1 Rh0_1 2.909965 1_555
Nd3_1 Rh0_0 2.909965 1_556
Nd3_1 Rh1_0 3.066261 1_556
Nd3_1 Rh1_1 3.066261 1_555
Nd3_1 Rh2_4 3.066261 1_456
Nd3_1 Rh2_5 3.066261 1_455
Nd3_2 Rh0_2 2.909965 1_555
Nd3_2 Rh0_3 2.909965 1_555
Nd3_2 Rh1_2 3.066261 1_555
Nd3_2 Rh1_3 3.066261 1_555
Nd3_2 Rh2_7 3.066261 1_455
Nd3_2 Rh2_6 3.066261 1_455
Nd3_3 Rh0_2 2.909965 1_556
Nd3_3 Rh0_3 2.909965 1_555
Nd3_3 Rh1_2 3.066261 1_556
Nd3_3 Rh1_3 3.066261 1_555
Nd3_3 Rh2_6 3.066261 1_456
Nd3_3 Rh2_7 3.066261 1_455
Nd3_4 Rh0_5 2.909965 1_555
Nd3_4 Rh0_4 2.909965 1_555
Nd3_4 Rh1_4 3.066261 1_555
Nd3_4 Rh1_5 3.066261 1_555
Nd3_4 Rh2_0 3.066261 1_555
Nd3_4 Rh2_1 3.066261 1_555
Nd3_5 Rh0_5 2.909965 1_555
Nd3_5 Rh0_4 2.909965 1_556
Nd3_5 Rh1_4 3.066261 1_556
Nd3_5 Rh1_5 3.066261 1_555
Nd3_5 Rh2_0 3.066261 1_556
Nd3_5 Rh2_1 3.066261 1_555
Nd3_6 Rh0_6 2.909965 1_555
Nd3_6 Rh0_7 2.909965 1_555
Nd3_6 Rh1_7 3.066261 1_555
Nd3_6 Rh1_6 3.066261 1_555
Nd3_6 Rh2_3 3.066261 1_555
Nd3_6 Rh2_2 3.066261 1_555
Nd3_7 Rh0_6 2.909965 1_556
Nd3_7 Rh0_7 2.909965 1_555
Nd3_7 Rh1_7 3.066261 1_555
Nd3_7 Rh1_6 3.066261 1_556
Nd3_7 Rh2_2 3.066261 1_556
Nd3_7 Rh2_3 3.066261 1_555
In0_0 Rh3_0 2.974683 1_555
In0_0 Rh2_0 2.974683 1_555
In0_0 Rh1_0 2.974683 1_555
In0_0 Rh0_0 2.974683 1_555
In0_0 Nd2_1 3.447329 1_554
In0_0 Nd2_0 3.447329 1_555
In0_0 Nd1_1 3.447329 1_554
In0_0 Nd1_0 3.447329 1_555
In0_0 Nd0_0 3.447329 1_555
In0_0 Nd3_1 3.447329 1_554
In0_0 Nd3_0 3.447329 1_555
In0_0 Nd0_1 3.447329 1_554
In0_0 In0_1 4.003387 1_555
In0_0 In0_1 4.003387 1_554
In0_1 Rh3_1 2.974683 1_555
In0_1 Rh2_1 2.974683 1_555
In0_1 Rh1_1 2.974683 1_555
In0_1 Rh0_1 2.974683 1_555
In0_1 Nd2_0 3.447329 1_555
In0_1 Nd2_1 3.447329 1_555
In0_1 Nd1_0 3.447329 1_555
In0_1 Nd1_1 3.447329 1_555
In0_1 Nd0_0 3.447329 1_555
In0_1 Nd3_0 3.447329 1_555
In0_1 Nd3_1 3.447329 1_555
In0_1 Nd0_1 3.447329 1_555
In0_2 Rh3_2 2.974683 1_555
In0_2 Rh2_2 2.974683 1_555
In0_2 Rh1_2 2.974683 1_555
In0_2 Rh0_2 2.974683 1_555
In0_2 Nd2_3 3.447329 1_554
In0_2 Nd2_2 3.447329 1_555
In0_2 Nd1_3 3.447329 1_554
In0_2 Nd1_2 3.447329 1_555
In0_2 Nd0_2 3.447329 1_555
In0_2 Nd0_3 3.447329 1_554
In0_2 Nd3_2 3.447329 1_555
In0_2 Nd3_3 3.447329 1_554
In0_2 In0_3 4.003387 1_554
In0_2 In0_3 4.003387 1_555
In0_3 Rh3_3 2.974683 1_555
In0_3 Rh2_3 2.974683 1_555
In0_3 Rh1_3 2.974683 1_555
In0_3 Rh0_3 2.974683 1_555
In0_3 Nd2_3 3.447329 1_555
In0_3 Nd2_2 3.447329 1_555
In0_3 Nd1_3 3.447329 1_555
In0_3 Nd1_2 3.447329 1_555
In0_3 Nd0_2 3.447329 1_555
In0_3 Nd0_3 3.447329 1_555
In0_3 Nd3_2 3.447329 1_555
In0_3 Nd3_3 3.447329 1_555
In0_4 Rh3_4 2.974683 1_555
In0_4 Rh2_4 2.974683 1_555
In0_4 Rh1_4 2.974683 1_555
In0_4 Rh0_4 2.974683 1_555
In0_4 Nd1_4 3.447329 1_555
In0_4 Nd1_5 3.447329 1_554
In0_4 Nd2_5 3.447329 1_554
In0_4 Nd2_4 3.447329 1_555
In0_4 Nd3_5 3.447329 1_554
In0_4 Nd3_4 3.447329 1_555
In0_4 Nd0_4 3.447329 1_555
In0_4 Nd0_5 3.447329 1_554
In0_4 In0_5 4.003387 1_554
In0_4 In0_5 4.003387 1_555
In0_5 Rh3_5 2.974683 1_555
In0_5 Rh2_5 2.974683 1_555
In0_5 Rh1_5 2.974683 1_555
In0_5 Rh0_5 2.974683 1_555
In0_5 Nd1_4 3.447329 1_555
In0_5 Nd1_5 3.447329 1_555
In0_5 Nd2_5 3.447329 1_555
In0_5 Nd2_4 3.447329 1_555
In0_5 Nd3_4 3.447329 1_555
In0_5 Nd3_5 3.447329 1_555
In0_5 Nd0_4 3.447329 1_555
In0_5 Nd0_5 3.447329 1_555
In0_6 Rh3_6 2.974683 1_555
In0_6 Rh2_6 2.974683 1_555
In0_6 Rh1_6 2.974683 1_555
In0_6 Rh0_6 2.974683 1_555
In0_6 Nd2_7 3.447329 1_554
In0_6 Nd1_7 3.447329 1_554
In0_6 Nd2_6 3.447329 1_555
In0_6 Nd1_6 3.447329 1_555
In0_6 Nd0_7 3.447329 1_554
In0_6 Nd3_7 3.447329 1_554
In0_6 Nd3_6 3.447329 1_555
In0_6 Nd0_6 3.447329 1_555
In0_6 In0_7 4.003387 1_555
In0_6 In0_7 4.003387 1_554
In0_7 Rh3_7 2.974683 1_555
In0_7 Rh2_7 2.974683 1_555
In0_7 Rh1_7 2.974683 1_555
In0_7 Rh0_7 2.974683 1_555
In0_7 Nd2_6 3.447329 1_555
In0_7 Nd1_7 3.447329 1_555
In0_7 Nd2_7 3.447329 1_555
In0_7 Nd1_6 3.447329 1_555
In0_7 Nd3_7 3.447329 1_555
In0_7 Nd3_6 3.447329 1_555
In0_7 Nd0_6 3.447329 1_555
In0_7 Nd0_7 3.447329 1_555
In1_0 Rh0_0 2.974683 1_555
In1_0 Rh2_4 2.974683 1_455
In1_0 Rh1_2 2.974683 1_545
In1_0 Rh3_6 2.974683 1_445
In1_0 Nd0_5 3.447329 1_454
In1_0 Nd3_0 3.447329 1_555
In1_0 Nd0_4 3.447329 1_455
In1_0 Nd3_1 3.447329 1_554
In1_0 Nd2_7 3.447329 1_444
In1_0 Nd2_6 3.447329 1_445
In1_0 Nd1_2 3.447329 1_545
In1_0 Nd1_3 3.447329 1_544
In1_0 In1_1 4.003387 1_554
In1_0 In1_1 4.003387 1_555
In1_1 Rh0_1 2.974683 1_555
In1_1 Rh2_5 2.974683 1_455
In1_1 Rh1_3 2.974683 1_545
In1_1 Rh3_7 2.974683 1_445
In1_1 Nd0_5 3.447329 1_455
In1_1 Nd3_0 3.447329 1_555
In1_1 Nd3_1 3.447329 1_555
In1_1 Nd0_4 3.447329 1_455
In1_1 Nd2_6 3.447329 1_445
In1_1 Nd2_7 3.447329 1_445
In1_1 Nd1_2 3.447329 1_545
In1_1 Nd1_3 3.447329 1_545
In1_2 Rh0_2 2.974683 1_555
In1_2 Rh2_6 2.974683 1_455
In1_2 Rh1_0 2.974683 1_555
In1_2 Rh3_4 2.974683 1_455
In1_2 Nd0_6 3.447329 1_455
In1_2 Nd3_2 3.447329 1_555
In1_2 Nd3_3 3.447329 1_554
In1_2 Nd0_7 3.447329 1_454
In1_2 Nd2_4 3.447329 1_455
In1_2 Nd2_5 3.447329 1_454
In1_2 Nd1_0 3.447329 1_555
In1_2 Nd1_1 3.447329 1_554
In1_2 In1_3 4.003387 1_554
In1_2 In1_3 4.003387 1_555
In1_3 Rh0_3 2.974683 1_555
In1_3 Rh2_7 2.974683 1_455
In1_3 Rh1_1 2.974683 1_555
In1_3 Rh3_5 2.974683 1_455
In1_3 Nd0_6 3.447329 1_455
In1_3 Nd3_2 3.447329 1_555
In1_3 Nd3_3 3.447329 1_555
In1_3 Nd0_7 3.447329 1_455
In1_3 Nd2_4 3.447329 1_455
In1_3 Nd2_5 3.447329 1_455
In1_3 Nd1_0 3.447329 1_555
In1_3 Nd1_1 3.447329 1_555
In1_4 Rh0_4 2.974683 1_555
In1_4 Rh2_0 2.974683 1_555
In1_4 Rh1_6 2.974683 1_545
In1_4 Rh3_2 2.974683 1_545
In1_4 Nd0_0 3.447329 1_555
In1_4 Nd3_4 3.447329 1_555
In1_4 Nd3_5 3.447329 1_554
In1_4 Nd0_1 3.447329 1_554
In1_4 Nd1_6 3.447329 1_545
In1_4 Nd1_7 3.447329 1_544
In1_4 Nd2_3 3.447329 1_544
In1_4 Nd2_2 3.447329 1_545
In1_4 In1_5 4.003387 1_555
In1_4 In1_5 4.003387 1_554
In1_5 Rh0_5 2.974683 1_555
In1_5 Rh2_1 2.974683 1_555
In1_5 Rh1_7 2.974683 1_545
In1_5 Rh3_3 2.974683 1_545
In1_5 Nd0_0 3.447329 1_555
In1_5 Nd3_4 3.447329 1_555
In1_5 Nd3_5 3.447329 1_555
In1_5 Nd0_1 3.447329 1_555
In1_5 Nd1_6 3.447329 1_545
In1_5 Nd1_7 3.447329 1_545
In1_5 Nd2_3 3.447329 1_545
In1_5 Nd2_2 3.447329 1_545
In1_6 Rh0_6 2.974683 1_555
In1_6 Rh2_2 2.974683 1_555
In1_6 Rh1_4 2.974683 1_555
In1_6 Rh3_0 2.974683 1_555
In1_6 Nd3_7 3.447329 1_554
In1_6 Nd3_6 3.447329 1_555
In1_6 Nd0_3 3.447329 1_554
In1_6 Nd0_2 3.447329 1_555
In1_6 Nd1_4 3.447329 1_555
In1_6 Nd1_5 3.447329 1_554
In1_6 Nd2_0 3.447329 1_555
In1_6 Nd2_1 3.447329 1_554
In1_6 In1_7 4.003387 1_554
In1_6 In1_7 4.003387 1_555
In1_7 Rh0_7 2.974683 1_555
In1_7 Rh2_3 2.974683 1_555
In1_7 Rh1_5 2.974683 1_555
In1_7 Rh3_1 2.974683 1_555
In1_7 Nd3_7 3.447329 1_555
In1_7 Nd3_6 3.447329 1_555
In1_7 Nd0_2 3.447329 1_555
In1_7 Nd0_3 3.447329 1_555
In1_7 Nd1_4 3.447329 1_555
In1_7 Nd1_5 3.447329 1_555
In1_7 Nd2_0 3.447329 1_555
In1_7 Nd2_1 3.447329 1_555
Rh0_0 Rh3_2 2.792577 1_545
Rh0_1 Rh3_3 2.792577 1_545
Rh0_2 Rh3_0 2.792577 1_555
Rh0_3 Rh3_1 2.792577 1_555
Rh0_4 Rh3_6 2.792577 1_545
Rh0_5 Rh3_7 2.792577 1_545
Rh0_6 Rh3_4 2.792577 1_555
Rh0_7 Rh3_5 2.792577 1_555
Rh1_0 Rh2_4 2.792577 1_455
Rh1_1 Rh2_5 2.792577 1_455
Rh1_2 Rh2_6 2.792577 1_455
Rh1_3 Rh2_7 2.792577 1_455
Rh1_4 Rh2_0 2.792577 1_555
Rh1_5 Rh2_1 2.792577 1_555
Rh1_6 Rh2_2 2.792577 1_555
Rh1_7 Rh2_3 2.792577 1_555
