# generated using pymatgen
data_Li2FeCl4
_symmetry_space_group_name_H-M   'P 1'
_cell_length_a   7.40036347
_cell_length_b   7.27066673
_cell_length_c   36.26454222
_cell_angle_alpha   61.02041182
_cell_angle_beta   60.82744497
_cell_angle_gamma   60.51551052
_symmetry_Int_Tables_number   1
_chemical_formula_structural   Li2FeCl4
_chemical_formula_sum   'Li20 Fe10 Cl40'
_cell_volume   1404.19509509
_cell_formula_units_Z   10
loop_
 _symmetry_equiv_pos_site_id
 _symmetry_equiv_pos_as_xyz
  1  'x, y, z'
loop_
 _atom_site_type_symbol
 _atom_site_label
 _atom_site_symmetry_multiplicity
 _atom_site_fract_x
 _atom_site_fract_y
 _atom_site_fract_z
 _atom_site_occupancy
  Li  Li0  1  0.37170156  0.04569914  0.00920690  1
  Li  Li1  1  0.49673376  0.48654715  0.00605442  1
  Li  Li2  1  0.49501997  0.01098142  0.10062222  1
  Li  Li3  1  0.50689078  0.99313142  0.20201594  1
  Li  Li4  1  0.50042918  0.99710305  0.30052960  1
  Li  Li5  1  0.49850901  0.98880154  0.40624585  1
  Li  Li6  1  0.98960404  0.50219003  0.49946079  1
  Li  Li7  1  0.50682144  0.00209018  0.49815121  1
  Li  Li8  1  0.01563253  0.05935216  0.67730982  1
  Li  Li9  1  0.45200211  0.03860602  0.59420546  1
  Li  Li10  1  0.01659676  0.49951372  0.69556293  1
  Li  Li11  1  0.49900586  0.01727362  0.69666167  1
  Li  Li12  1  0.51930612  0.50027423  0.59517322  1
  Li  Li13  1  0.99687539  0.03205308  0.89224942  1
  Li  Li14  1  0.44058437  0.03833991  0.79863204  1
  Li  Li15  1  0.97712107  0.49128419  0.90733232  1
  Li  Li16  1  0.49885937  -0.00007267  0.90206093  1
  Li  Li17  1  0.92150399  0.84758028  0.57174300  1
  Li  Li18  1  0.92290610  0.81426158  0.78223541  1
  Li  Li19  1  0.91389750  0.81646419  0.98447500  1
  Fe  Fe0  1  0.99692635  0.49076662  0.10578538  1
  Fe  Fe1  1  0.48386159  0.48968032  0.10377664  1
  Fe  Fe2  1  0.49999205  0.49841767  0.20123522  1
  Fe  Fe3  1  0.49955058  0.50054953  0.29929858  1
  Fe  Fe4  1  0.51242463  0.49392583  0.39926459  1
  Fe  Fe5  1  0.00110121  0.49900693  0.29984647  1
  Fe  Fe6  1  0.50797322  0.49918363  0.49379870  1
  Fe  Fe7  1  0.50407214  0.49548602  0.69944635  1
  Fe  Fe8  1  0.50712681  0.49549248  0.80404682  1
  Fe  Fe9  1  0.49863060  0.49663207  0.89588717  1
  Cl  Cl0  1  0.24275083  0.27081933  0.05303739  1
  Cl  Cl1  1  0.24920825  0.25634940  0.14978565  1
  Cl  Cl2  1  0.24190487  0.73521083  0.05507275  1
  Cl  Cl3  1  0.71499668  0.27040347  0.05519217  1
  Cl  Cl4  1  0.28249001  0.72470715  0.15002973  1
  Cl  Cl5  1  0.25964173  0.26716039  0.24871007  1
  Cl  Cl6  1  0.74209633  0.26124924  0.15040065  1
  Cl  Cl7  1  0.25636261  0.27314350  0.34358669  1
  Cl  Cl8  1  0.25512119  0.74079491  0.25054756  1
  Cl  Cl9  1  0.73442472  0.73317390  0.05923596  1
  Cl  Cl10  1  0.73948188  0.73295387  0.15273234  1
  Cl  Cl11  1  0.71897013  0.27073236  0.25074312  1
  Cl  Cl12  1  0.29060308  0.72631366  0.34779596  1
  Cl  Cl13  1  0.28253952  0.26366007  0.44483152  1
  Cl  Cl14  1  0.75190510  0.26358302  0.34633027  1
  Cl  Cl15  1  0.74527343  0.73259481  0.25367768  1
  Cl  Cl16  1  0.26012471  0.27930103  0.54204060  1
  Cl  Cl17  1  0.27252225  0.74362438  0.44629410  1
  Cl  Cl18  1  0.74729074  0.73163413  0.34947377  1
  Cl  Cl19  1  0.73785071  0.26114234  0.44788697  1
  Cl  Cl20  1  0.29323326  0.73053821  0.54581106  1
  Cl  Cl21  1  0.25721371  0.24033899  0.65111108  1
  Cl  Cl22  1  0.73701596  0.24711085  0.54939975  1
  Cl  Cl23  1  0.73623857  0.72946986  0.45339097  1
  Cl  Cl24  1  0.25369163  0.74368001  0.65327161  1
  Cl  Cl25  1  0.26040321  0.27466992  0.74510334  1
  Cl  Cl26  1  0.72735105  0.75788631  0.55191753  1
  Cl  Cl27  1  0.72193121  0.26099151  0.65179776  1
  Cl  Cl28  1  0.29703295  0.72745274  0.74983186  1
  Cl  Cl29  1  0.26331366  0.25778878  0.84916801  1
  Cl  Cl30  1  0.26399821  0.26905104  0.94446266  1
  Cl  Cl31  1  0.74632872  0.23704696  0.75185671  1
  Cl  Cl32  1  0.25246675  0.75195738  0.84976656  1
  Cl  Cl33  1  0.74020874  0.72812812  0.65567922  1
  Cl  Cl34  1  0.74170620  0.25354494  0.84962758  1
  Cl  Cl35  1  0.73353867  0.75072707  0.75442751  1
  Cl  Cl36  1  0.28327744  0.74270438  0.94525642  1
  Cl  Cl37  1  0.75356239  0.24264220  0.94820441  1
  Cl  Cl38  1  0.73049176  0.73236274  0.85687705  1
  Cl  Cl39  1  0.75477707  0.76774090  0.94831987  1
loop_
_geom_bond_atom_site_label_1
_geom_bond_atom_site_label_2
_geom_bond_distance
_geom_bond_site_symmetry_2
Li13 Li19 2.808072 1_545
Cl0 Li0 2.370840 1_555
Cl0 Li1 2.467055 1_555
Cl0 Fe0 2.496766 1_455
Cl0 Li2 2.557735 1_555
Cl1 Fe1 2.451515 1_555
Cl1 Fe0 2.464393 1_455
Cl1 Li2 2.529058 1_555
Cl1 Li3 2.702388 1_545
Cl2 Li0 2.392461 1_565
Cl2 Fe1 2.528605 1_555
Cl2 Li1 2.544582 1_555
Cl2 Fe0 2.565495 1_455
Cl3 Fe1 2.381442 1_555
Cl3 Li1 2.418205 1_555
Cl3 Li2 2.513719 1_555
Cl3 Cl6 3.522066 1_555
Cl4 Fe1 2.405848 1_555
Cl4 Fe2 2.468300 1_555
Cl4 Li2 2.622552 1_565
Cl5 Fe2 2.471524 1_555
Cl5 Fe5 2.517229 1_555
Cl5 Li4 2.609007 1_545
Cl5 Li3 2.616286 1_545
Cl6 Fe2 2.530041 1_555
Cl6 Fe0 2.542806 1_555
Cl6 Fe1 2.563948 1_555
Cl6 Li3 2.638489 1_545
Cl7 Fe3 2.467824 1_555
Cl7 Fe5 2.474807 1_555
Cl7 Li4 2.539157 1_545
Cl7 Li5 2.901611 1_545
Cl8 Fe2 2.517589 1_555
Cl8 Fe3 2.542379 1_555
Cl8 Fe5 2.598403 1_555
Cl8 Li3 2.640870 1_555
Cl9 Li19 2.274110 1_554
Cl9 Li2 2.508753 1_565
Cl9 Fe0 2.583284 1_555
Cl9 Fe1 2.592705 1_555
Cl9 Li0 3.226311 1_565
Cl10 Fe0 2.463608 1_555
Cl10 Fe2 2.484405 1_555
Cl10 Li3 2.609063 1_555
Cl10 Li2 2.638502 1_565
Cl11 Fe2 2.430138 1_555
Cl11 Fe3 2.433515 1_555
Cl11 Li4 2.583291 1_545
Cl11 Cl14 3.565780 1_555
Cl12 Fe3 2.413753 1_555
Cl12 Fe4 2.496827 1_555
Cl12 Li4 2.523893 1_555
Cl13 Fe4 2.410401 1_555
Cl13 Li5 2.427221 1_545
Cl13 Li7 2.562950 1_555
Cl13 Li6 2.659609 1_455
Cl14 Fe5 2.540290 1_655
Cl14 Fe3 2.540767 1_555
Cl14 Fe4 2.550993 1_555
Cl14 Li5 2.781781 1_545
Cl15 Fe3 2.504523 1_555
Cl15 Fe5 2.538034 1_655
Cl15 Li4 2.569676 1_555
Cl15 Li3 2.589210 1_555
Cl16 Li9 2.371113 1_555
Cl16 Fe6 2.455345 1_555
Cl16 Li6 2.532519 1_455
Cl16 Li7 2.565568 1_555
Cl17 Fe6 2.464479 1_555
Cl17 Li5 2.478287 1_555
Cl17 Fe4 2.496458 1_555
Cl17 Li6 2.754135 1_455
Cl18 Fe4 2.478277 1_555
Cl18 Fe5 2.480826 1_655
Cl18 Li4 2.565879 1_555
Cl18 Li5 2.787593 1_555
Cl19 Fe6 2.407122 1_555
Cl19 Fe4 2.439911 1_555
Cl19 Li7 2.568682 1_555
Cl20 Li17 2.263887 1_455
Cl20 Li12 2.462675 1_555
Cl20 Fe6 2.536440 1_555
Cl20 Li7 2.546727 1_565
Cl21 Li8 2.297580 1_555
Cl21 Li11 2.447375 1_555
Cl21 Li10 2.482407 1_555
Cl21 Li9 2.537634 1_555
Cl21 Li12 2.739790 1_555
Cl22 Li17 2.419183 1_545
Cl22 Li12 2.484650 1_555
Cl22 Li9 2.608959 1_555
Cl22 Fe6 2.643984 1_555
Cl22 Li6 2.659160 1_555
Cl23 Fe6 2.407859 1_555
Cl23 Li5 2.473169 1_555
Cl23 Li6 2.523140 1_555
Cl23 Li7 2.562127 1_565
Cl24 Li8 2.364867 1_565
Cl24 Fe7 2.509769 1_555
Cl24 Li10 2.527212 1_555
Cl24 Li9 2.631057 1_565
Cl24 Li12 2.754285 1_555
Cl25 Li14 2.352575 1_555
Cl25 Fe7 2.435980 1_555
Cl25 Li10 2.562444 1_555
Cl25 Li11 2.571965 1_555
Cl26 Li17 2.321706 1_555
Cl26 Li12 2.444673 1_555
Cl26 Li7 2.552029 1_565
Cl26 Li9 2.561696 1_565
Cl26 Li6 2.667884 1_555
Cl27 Li8 2.288831 1_655
Cl27 Fe7 2.434117 1_555
Cl27 Li11 2.444583 1_555
Cl27 Li12 2.542444 1_555
Cl28 Li18 2.295983 1_455
Cl28 Fe7 2.498769 1_555
Cl28 Fe8 2.512558 1_555
Cl28 Li11 2.597278 1_565
Cl29 Li14 2.460604 1_555
Cl29 Fe8 2.524080 1_555
Cl29 Li13 2.592312 1_455
Cl29 Li16 2.605879 1_555
Cl29 Li15 2.718863 1_455
Cl30 Li0 2.375033 1_556
Cl30 Fe9 2.424435 1_555
Cl30 Li16 2.485223 1_555
Cl30 Li15 2.496574 1_455
Cl31 Li18 2.556991 1_545
Cl31 Fe7 2.627245 1_555
Cl31 Fe8 2.674365 1_555
Cl31 Li14 2.680586 1_555
Cl31 Li10 2.794850 1_655
Cl31 Li8 2.923495 1_655
Cl32 Fe9 2.488965 1_555
Cl32 Fe8 2.503602 1_555
Cl32 Li14 2.511480 1_565
Cl32 Li13 2.550686 1_465
Cl32 Li15 2.814759 1_455
Cl33 Fe7 2.457280 1_555
Cl33 Li10 2.499234 1_655
Cl33 Li17 2.534513 1_555
Cl33 Li11 2.561639 1_565
Cl33 Li9 3.103894 1_565
Cl34 Fe8 2.411254 1_555
Cl34 Fe9 2.444456 1_555
Cl34 Li13 2.447100 1_555
Cl34 Li16 2.603603 1_555
Cl35 Li18 2.379198 1_555
Cl35 Fe8 2.524841 1_555
Cl35 Li14 2.653345 1_565
Cl35 Li11 2.730598 1_565
Cl35 Li10 2.816643 1_655
Cl35 Li8 3.170665 1_665
Cl36 Li19 2.299687 1_455
Cl36 Li16 2.481653 1_565
Cl36 Fe9 2.541971 1_555
Cl36 Li1 2.710255 1_556
Cl36 Li13 2.877011 1_465
Cl37 Li15 2.481776 1_555
Cl37 Li13 2.537487 1_555
Cl37 Li19 2.586947 1_545
Cl37 Fe9 2.689607 1_555
Cl37 Li1 2.749243 1_556
Cl37 Li0 3.122381 1_556
Cl38 Li18 2.285698 1_555
Cl38 Fe9 2.462113 1_555
Cl38 Li16 2.544747 1_565
Cl38 Li15 2.598115 1_555
Cl38 Li14 3.029799 1_565
Cl39 Li19 2.365818 1_555
Cl39 Li15 2.492400 1_555
Cl39 Li16 2.541019 1_565
Cl39 Li13 2.662473 1_565
Cl39 Li1 2.829783 1_556
Cl39 Li0 3.094878 1_566
