# generated using pymatgen
data_Fe2(CO)9
_symmetry_space_group_name_H-M   'P 1'
_cell_length_a   6.44716194
_cell_length_b   6.44716194
_cell_length_c   16.13669500
_cell_angle_alpha   90.00000000
_cell_angle_beta   90.00000000
_cell_angle_gamma   119.99999934
_symmetry_Int_Tables_number   1
_chemical_formula_structural   Fe2(CO)9
_chemical_formula_sum   'Fe4 C18 O18'
_cell_volume   580.87459463
_cell_formula_units_Z   2
loop_
 _symmetry_equiv_pos_site_id
 _symmetry_equiv_pos_as_xyz
  1  'x, y, z'
loop_
 _atom_site_type_symbol
 _atom_site_label
 _atom_site_symmetry_multiplicity
 _atom_site_fract_x
 _atom_site_fract_y
 _atom_site_fract_z
 _atom_site_occupancy
  Fe  Fe0  1  0.66666700  0.33333300  0.82827200  1
  Fe  Fe1  1  0.33333300  0.66666700  0.32827200  1
  Fe  Fe2  1  0.33333300  0.66666700  0.17172800  1
  Fe  Fe3  1  0.66666700  0.33333300  0.67172800  1
  C  C0  1  0.66198900  0.57326200  0.88604700  1
  C  C1  1  0.66198900  0.57326200  0.61395300  1
  C  C2  1  0.33801100  0.42673800  0.38604700  1
  C  C3  1  0.91127400  0.33801100  0.61395300  1
  C  C4  1  0.08872600  0.66198900  0.11395300  1
  C  C5  1  0.08872600  0.66198900  0.38604700  1
  C  C6  1  0.33194700  0.90770800  0.25000000  1
  C  C7  1  0.57576100  0.66805300  0.25000000  1
  C  C8  1  0.66805300  0.09229200  0.75000000  1
  C  C9  1  0.57326200  0.91127400  0.38604700  1
  C  C10  1  0.57326200  0.91127400  0.11395300  1
  C  C11  1  0.90770800  0.57576100  0.75000000  1
  C  C12  1  0.91127400  0.33801100  0.88604700  1
  C  C13  1  0.33801100  0.42673800  0.11395300  1
  C  C14  1  0.42673800  0.08872600  0.61395300  1
  C  C15  1  0.42673800  0.08872600  0.88604700  1
  C  C16  1  0.09229200  0.42423900  0.25000000  1
  C  C17  1  0.42423900  0.33194700  0.75000000  1
  O  O0  1  0.34412300  0.28025800  0.07429500  1
  O  O1  1  0.24072100  0.33102800  0.75000000  1
  O  O2  1  0.06386600  0.34412300  0.57429500  1
  O  O3  1  0.09030700  0.75927900  0.75000000  1
  O  O4  1  0.90969300  0.24072100  0.25000000  1
  O  O5  1  0.93613400  0.65587700  0.07429500  1
  O  O6  1  0.65587700  0.71974200  0.92570500  1
  O  O7  1  0.71974200  0.06386600  0.42570500  1
  O  O8  1  0.28025800  0.93613400  0.57429500  1
  O  O9  1  0.34412300  0.28025800  0.42570500  1
  O  O10  1  0.66897200  0.90969300  0.75000000  1
  O  O11  1  0.28025800  0.93613400  0.92570500  1
  O  O12  1  0.65587700  0.71974200  0.57429500  1
  O  O13  1  0.93613400  0.65587700  0.42570500  1
  O  O14  1  0.71974200  0.06386600  0.07429500  1
  O  O15  1  0.06386600  0.34412300  0.92570500  1
  O  O16  1  0.33102800  0.09030700  0.25000000  1
  O  O17  1  0.75927900  0.66897200  0.25000000  1
loop_
_geom_bond_atom_site_label_1
_geom_bond_atom_site_label_2
_geom_bond_distance
_geom_bond_site_symmetry_2
C0 O6 1.157651 1_555
C0 Fe0 1.819209 1_555
C1 O12 1.157651 1_555
C1 Fe3 1.819209 1_555
C2 O9 1.157651 1_555
C2 Fe1 1.819209 1_555
C3 O2 1.157651 1_655
C3 Fe3 1.819209 1_555
C4 O5 1.157651 1_455
C4 Fe2 1.819209 1_555
C5 O13 1.157651 1_455
C5 Fe1 1.819209 1_555
C6 O16 1.180219 1_565
C6 Fe2 2.006060 1_555
C6 Fe1 2.006060 1_555
C7 O17 1.180219 1_555
C7 Fe1 2.006065 1_555
C7 Fe2 2.006065 1_555
C8 O10 1.180219 1_545
C8 Fe3 2.006060 1_555
C8 Fe0 2.006060 1_555
C9 O7 1.157651 1_565
C9 Fe1 1.819209 1_555
C10 O14 1.157651 1_565
C10 Fe2 1.819209 1_555
C11 O3 1.180219 1_655
C11 Fe3 2.006062 1_555
C11 Fe0 2.006062 1_555
C12 O15 1.157651 1_655
C12 Fe0 1.819209 1_555
C13 O0 1.157651 1_555
C13 Fe2 1.819209 1_555
C14 O8 1.157651 1_545
C14 Fe3 1.819209 1_555
C15 O11 1.157651 1_545
C15 Fe0 1.819209 1_555
C16 O4 1.180219 1_455
C16 Fe2 2.006062 1_555
C16 Fe1 2.006062 1_555
C17 O1 1.180219 1_555
C17 Fe3 2.006065 1_555
C17 Fe0 2.006065 1_555
