# generated using pymatgen
data_Eu2Zr2O7
_symmetry_space_group_name_H-M   'P 1'
_cell_length_a   3.68951700
_cell_length_b   7.50339600
_cell_length_c   10.78081900
_cell_angle_alpha   90.00000000
_cell_angle_beta   90.00000000
_cell_angle_gamma   90.00000000
_symmetry_Int_Tables_number   1
_chemical_formula_structural   Eu2Zr2O7
_chemical_formula_sum   'Eu4 Zr4 O14'
_cell_volume   298.45519166
_cell_formula_units_Z   2
loop_
 _symmetry_equiv_pos_site_id
 _symmetry_equiv_pos_as_xyz
  1  'x, y, z'
loop_
 _atom_site_type_symbol
 _atom_site_label
 _atom_site_symmetry_multiplicity
 _atom_site_fract_x
 _atom_site_fract_y
 _atom_site_fract_z
 _atom_site_occupancy
  Eu  Eu0  1  0.50000000  0.50000000  0.50000000  1
  Eu  Eu1  1  0.00000000  0.75000000  0.22643800  1
  Eu  Eu2  1  0.50000000  0.00000000  0.50000000  1
  Eu  Eu3  1  0.00000000  0.25000000  0.77356200  1
  Zr  Zr0  1  0.00000000  0.25000000  0.24278200  1
  Zr  Zr1  1  0.00000000  0.75000000  0.75721800  1
  Zr  Zr2  1  0.50000000  0.50000000  0.00000000  1
  Zr  Zr3  1  0.50000000  0.00000000  0.00000000  1
  O  O0  1  0.00000000  0.47282000  0.63414400  1
  O  O1  1  0.50000000  0.75000000  0.86457100  1
  O  O2  1  0.50000000  0.25000000  0.89482300  1
  O  O3  1  0.00000000  0.02260600  0.11529100  1
  O  O4  1  0.00000000  0.47739400  0.11529100  1
  O  O5  1  0.00000000  0.52260600  0.88470900  1
  O  O6  1  0.50000000  0.25000000  0.37644300  1
  O  O7  1  0.50000000  0.75000000  0.10517700  1
  O  O8  1  0.00000000  0.97282000  0.36585600  1
  O  O9  1  0.00000000  0.02718000  0.63414400  1
  O  O10  1  0.00000000  0.52718000  0.36585600  1
  O  O11  1  0.50000000  0.75000000  0.62355700  1
  O  O12  1  0.00000000  0.97739400  0.88470900  1
  O  O13  1  0.50000000  0.25000000  0.13542900  1
loop_
_geom_bond_atom_site_label_1
_geom_bond_atom_site_label_2
_geom_bond_distance
_geom_bond_site_symmetry_2
Eu0 O11 2.300686 1_555
Eu0 O6 2.300686 1_555
Eu0 O0 2.352907 1_555
Eu0 O0 2.352907 1_655
Eu0 O10 2.352907 1_555
Eu0 O10 2.352907 1_655
Eu1 O10 2.248200 1_555
Eu1 O8 2.248200 1_555
Eu1 O7 2.261006 1_455
Eu1 O7 2.261006 1_555
Eu1 O3 2.370605 1_565
Eu1 O4 2.370605 1_555
Eu2 O11 2.300686 1_545
Eu2 O6 2.300686 1_555
Eu2 O9 2.352907 1_555
Eu2 O9 2.352907 1_655
Eu2 O8 2.352907 1_645
Eu2 O8 2.352907 1_545
Eu3 O9 2.248200 1_555
Eu3 O0 2.248200 1_555
Eu3 O2 2.261006 1_455
Eu3 O2 2.261006 1_555
Eu3 O12 2.370605 1_545
Eu3 O5 2.370605 1_555
O0 Zr1 2.466989 1_555
O0 O5 2.727004 1_555
O0 O11 2.782390 1_455
O0 O11 2.782390 1_555
O1 Zr1 2.177751 1_655
O1 Zr1 2.177751 1_555
O1 Zr2 2.377081 1_556
O1 Zr3 2.377081 1_566
O1 O5 2.522197 1_655
O1 O5 2.522197 1_555
O1 O12 2.522197 1_555
O1 O12 2.522197 1_655
O1 O7 2.593930 1_556
O1 O11 2.598328 1_555
O2 Zr2 2.191923 1_556
O2 Zr3 2.191923 1_556
O2 O5 2.756624 1_655
O2 O5 2.756624 1_555
O3 Zr0 2.190969 1_555
O3 Zr3 2.230871 1_555
O3 Zr3 2.230871 1_455
O3 O8 2.727004 1_545
O3 O7 2.756624 1_545
O3 O7 2.756624 1_445
O4 Zr0 2.190969 1_555
O4 Zr2 2.230871 1_455
O4 Zr2 2.230871 1_555
O4 O5 2.508904 1_554
O4 O7 2.756624 1_555
O4 O7 2.756624 1_455
O5 Zr1 2.190969 1_555
O5 Zr2 2.230871 1_456
O5 Zr2 2.230871 1_556
O6 Zr0 2.340842 1_655
O6 Zr0 2.340842 1_555
O6 O8 2.782390 1_545
O6 O8 2.782390 1_645
O7 Zr3 2.191923 1_565
O7 Zr2 2.191923 1_555
O8 Zr0 2.466989 1_565
O9 Zr1 2.466989 1_545
O10 Zr0 2.466989 1_555
O10 O4 2.727004 1_555
O10 O6 2.782390 1_455
O10 O6 2.782390 1_555
O11 Zr1 2.340842 1_555
O11 Zr1 2.340842 1_655
O11 O9 2.782390 1_565
O11 O9 2.782390 1_665
O12 Zr1 2.190969 1_555
O12 Zr3 2.230871 1_566
O12 Zr3 2.230871 1_466
O12 O3 2.508904 1_566
O12 O9 2.727004 1_565
O12 O2 2.756624 1_465
O12 O2 2.756624 1_565
O13 Zr0 2.177751 1_655
O13 Zr0 2.177751 1_555
O13 Zr3 2.377081 1_555
O13 Zr2 2.377081 1_555
O13 O4 2.522197 1_555
O13 O4 2.522197 1_655
O13 O3 2.522197 1_555
O13 O3 2.522197 1_655
O13 O2 2.593930 1_554
O13 O6 2.598328 1_555
