# generated using pymatgen
data_Sm6InCo2
_symmetry_space_group_name_H-M   'P 1'
_cell_length_a   8.52942021
_cell_length_b   8.52942065
_cell_length_c   8.52941885
_cell_angle_alpha   107.85135714
_cell_angle_beta   108.49151729
_cell_angle_gamma   112.10388700
_symmetry_Int_Tables_number   1
_chemical_formula_structural   Sm6InCo2
_chemical_formula_sum   'Sm12 In2 Co4'
_cell_volume   476.90510542
_cell_formula_units_Z   2
loop_
 _symmetry_equiv_pos_site_id
 _symmetry_equiv_pos_as_xyz
  1  'x, y, z'
loop_
 _atom_site_type_symbol
 _atom_site_label
 _atom_site_symmetry_multiplicity
 _atom_site_fract_x
 _atom_site_fract_y
 _atom_site_fract_z
 _atom_site_occupancy
  Sm  Sm0  1  0.18569860  0.50977804  0.32407944  1
  Sm  Sm1  1  0.03122347  0.21386915  0.81735432  1
  Sm  Sm2  1  0.70635150  0.73280930  0.43916080  1
  Sm  Sm3  1  0.81430140  0.49022196  0.67592056  1
  Sm  Sm4  1  0.81430140  0.13838083  0.32407944  1
  Sm  Sm5  1  0.60348417  0.78613085  0.81735432  1
  Sm  Sm6  1  0.29364850  0.26719070  0.56083920  1
  Sm  Sm7  1  0.96877653  0.78613085  0.18264568  1
  Sm  Sm8  1  0.29364850  0.73280930  0.02645781  1
  Sm  Sm9  1  0.39651583  0.21386915  0.18264568  1
  Sm  Sm10  1  0.70635150  0.26719070  0.97354219  1
  Sm  Sm11  1  0.18569860  0.86161917  0.67592056  1
  In  In0  1  0.50000000  0.00000000  0.50000000  1
  In  In1  1  0.50000000  0.50000000  0.00000000  1
  Co  Co0  1  0.84009962  0.50000000  0.34009962  1
  Co  Co1  1  0.00000000  0.10976490  0.10976490  1
  Co  Co2  1  -0.00000000  0.89023510  0.89023510  1
  Co  Co3  1  0.15990038  0.50000000  0.65990038  1
loop_
_geom_bond_atom_site_label_1
_geom_bond_atom_site_label_2
_geom_bond_distance
_geom_bond_site_symmetry_2
Sm0 Sm6 3.467456 1_555
Sm0 Sm10 3.467456 1_454
Sm0 Sm11 3.534183 1_555
Sm0 Sm1 3.739456 1_554
Sm0 Sm9 3.739464 1_555
Sm0 Sm8 3.746466 1_555
Sm0 Sm2 3.746467 1_555
Sm0 Sm5 3.747570 1_555
Sm0 Sm7 3.747573 1_455
Sm1 Sm10 3.546606 1_455
Sm1 Sm2 3.546606 1_445
Sm1 Sm6 3.599230 1_555
Sm1 Sm8 3.599230 1_556
Sm1 Sm9 3.641100 1_556
Sm1 Sm11 3.739457 1_545
Sm1 Sm4 3.747572 1_455
Sm1 Sm3 3.747573 1_455
Sm2 Sm3 3.467456 1_555
Sm2 Sm5 3.546610 1_555
Sm2 Sm9 3.599229 1_555
Sm2 Sm7 3.599230 1_555
Sm2 Sm4 3.746467 1_565
Sm3 Sm8 3.467456 1_656
Sm3 Sm4 3.534183 1_555
Sm3 Sm7 3.739456 1_556
Sm3 Sm5 3.739464 1_555
Sm3 Sm6 3.746467 1_555
Sm3 Sm9 3.747570 1_555
Sm4 Sm6 3.467456 1_655
Sm4 Sm5 3.739454 1_544
Sm4 Sm7 3.739457 1_545
Sm4 Sm8 3.746467 1_545
Sm4 Sm9 3.747565 1_555
Sm5 Sm8 3.599223 1_556
Sm5 Sm6 3.599229 1_555
Sm5 Sm7 3.641100 1_556
Sm6 Sm7 3.546606 1_445
Sm6 Sm9 3.546610 1_555
Sm7 Sm8 3.546606 1_655
Sm8 Sm9 3.546604 1_565
Sm10 Sm4 3.467456 1_556
Sm10 Sm5 3.546604 1_545
Sm10 Sm9 3.599223 1_556
Sm10 Sm7 3.599230 1_556
Sm10 Sm3 3.746466 1_555
Sm10 Sm11 3.746467 1_545
Sm11 Sm8 3.467456 1_556
Sm11 Sm2 3.467456 1_455
Sm11 Sm9 3.739454 1_566
Sm11 Sm6 3.746467 1_565
Sm11 Sm5 3.747565 1_555
Sm11 Sm7 3.747572 1_455
In0 Sm10 3.381393 1_555
In0 Sm8 3.381393 1_545
In0 Sm6 3.381394 1_555
In0 Sm2 3.381394 1_545
In0 Sm4 3.476713 1_555
In0 Sm11 3.476713 1_545
In0 Sm0 3.476713 1_545
In0 Sm3 3.476713 1_555
In0 Sm5 3.762615 1_545
In0 Sm9 3.762615 1_555
In0 Sm7 3.762617 1_445
In0 Sm1 3.762617 1_655
In1 Sm2 3.114370 1_555
In1 Sm6 3.114370 1_554
In1 Sm10 3.114371 1_554
In1 Sm8 3.114371 1_555
In1 Sm9 3.277848 1_555
In1 Sm5 3.277848 1_554
In1 Sm7 3.277849 1_555
In1 Sm1 3.277849 1_554
Co0 Sm10 2.691843 1_554
Co0 Sm2 2.691843 1_555
Co0 Sm3 2.965194 1_555
Co0 Sm11 2.965195 1_655
Co0 Sm0 2.965195 1_655
Co0 Sm4 2.965195 1_555
Co0 Sm9 3.145317 1_555
Co0 Sm7 3.145324 1_555
Co0 Co3 3.187661 1_655
Co0 In1 3.389993 1_555
Co1 Co2 2.205139 1_544
Co1 Sm4 2.786362 1_455
Co1 Sm0 2.786363 1_555
Co1 Sm1 2.946358 1_554
Co1 Sm7 2.946358 1_445
Co1 Sm5 2.946363 1_444
Co1 Sm9 2.946367 1_555
Co1 Sm6 3.326829 1_555
Co1 Sm10 3.326830 1_454
Co2 Sm11 2.786362 1_555
Co2 Sm3 2.786363 1_455
Co2 Sm7 2.946358 1_456
Co2 Sm1 2.946358 1_565
Co2 Sm9 2.946363 1_566
Co2 Sm5 2.946367 1_455
Co2 Sm2 3.326829 1_455
Co2 Sm8 3.326830 1_556
Co3 Sm8 2.691843 1_556
Co3 Sm6 2.691843 1_555
Co3 Sm0 2.965194 1_555
Co3 Sm4 2.965195 1_455
Co3 Sm3 2.965195 1_455
Co3 Sm11 2.965195 1_555
Co3 Sm5 3.145317 1_555
Co3 Sm1 3.145324 1_555
Co3 In1 3.389993 1_556
