# generated using pymatgen
data_U3(HO5)2
_symmetry_space_group_name_H-M   'P 1'
_cell_length_a   5.64767300
_cell_length_b   5.88537627
_cell_length_c   7.13224023
_cell_angle_alpha   74.25265035
_cell_angle_beta   72.40698402
_cell_angle_gamma   73.30458169
_symmetry_Int_Tables_number   1
_chemical_formula_structural   U3(HO5)2
_chemical_formula_sum   'U3 H2 O10'
_cell_volume   211.98375740
_cell_formula_units_Z   1
loop_
 _symmetry_equiv_pos_site_id
 _symmetry_equiv_pos_as_xyz
  1  'x, y, z'
loop_
 _atom_site_type_symbol
 _atom_site_label
 _atom_site_symmetry_multiplicity
 _atom_site_fract_x
 _atom_site_fract_y
 _atom_site_fract_z
 _atom_site_occupancy
  U  U0  1  0.00000000  0.00000000  0.00000000  1
  U  U1  1  0.53885700  0.44092700  0.74136700  1
  U  U2  1  0.46114300  0.55907300  0.25863300  1
  H  H0  1  0.88112000  0.77998900  0.58374600  1
  H  H1  1  0.11888000  0.22001100  0.41625400  1
  O  O0  1  0.90455100  0.07563300  0.75381700  1
  O  O1  1  0.09544900  0.92436700  0.24618300  1
  O  O2  1  0.66615600  0.32383400  0.45559000  1
  O  O3  1  0.33384400  0.67616600  0.54441000  1
  O  O4  1  0.30796900  0.68315800  0.95814300  1
  O  O5  1  0.69203100  0.31684200  0.04185700  1
  O  O6  1  0.69966700  0.77440900  0.14156400  1
  O  O7  1  0.30033300  0.22559100  0.85843600  1
  O  O8  1  0.79696600  0.64542200  0.65208500  1
  O  O9  1  0.20303400  0.35457800  0.34791500  1
loop_
_geom_bond_atom_site_label_1
_geom_bond_atom_site_label_2
_geom_bond_distance
_geom_bond_site_symmetry_2
H0 O8 0.978463 1_555
H0 O1 2.387995 1_655
H0 O3 2.398177 1_655
H0 O0 2.427199 1_565
H1 O9 0.978463 1_555
H1 O0 2.387995 1_455
H1 O2 2.398177 1_455
H1 O1 2.427199 1_545
O0 U0 1.892554 1_656
O0 U1 2.520220 1_555
O0 O5 2.605714 1_556
O0 O2 2.717618 1_555
O1 U0 1.892554 1_565
O1 U2 2.520220 1_555
O1 O4 2.605714 1_554
O1 O3 2.717618 1_555
O2 U2 2.058451 1_555
O2 U1 2.176715 1_555
O2 O3 2.445757 1_555
O2 O5 2.921011 1_555
O3 U1 2.058451 1_555
O3 U2 2.176715 1_555
O3 O4 2.921011 1_555
O4 U0 2.171706 1_566
O4 U1 2.243374 1_555
O4 U2 2.404803 1_556
O4 O5 2.665817 1_556
O4 O9 2.926352 1_556
O4 O8 2.950888 1_555
O4 O7 2.980657 1_555
O5 U0 2.171706 1_655
O5 U2 2.243374 1_555
O5 U1 2.404803 1_554
O5 O8 2.926352 1_554
O5 O9 2.950888 1_555
O5 O6 2.980657 1_555
O6 U2 1.960766 1_555
O6 U0 2.278213 1_665
O7 U1 1.960766 1_555
O7 U0 2.278213 1_556
O8 U1 2.002452 1_555
O9 U2 2.002452 1_555
