# generated using pymatgen
data_Si2H2O5
_symmetry_space_group_name_H-M   'P 1'
_cell_length_a   8.97063730
_cell_length_b   8.97063730
_cell_length_c   5.22221603
_cell_angle_alpha   76.15780689
_cell_angle_beta   76.15780689
_cell_angle_gamma   37.20451143
_symmetry_Int_Tables_number   1
_chemical_formula_structural   Si2H2O5
_chemical_formula_sum   'Si4 H4 O10'
_cell_volume   245.87583075
_cell_formula_units_Z   2
loop_
 _symmetry_equiv_pos_site_id
 _symmetry_equiv_pos_as_xyz
  1  'x, y, z'
loop_
 _atom_site_type_symbol
 _atom_site_label
 _atom_site_symmetry_multiplicity
 _atom_site_fract_x
 _atom_site_fract_y
 _atom_site_fract_z
 _atom_site_occupancy
  Si  Si0  1  0.49739200  0.81849600  0.52564900  1
  Si  Si1  1  0.49645200  0.19004000  0.37237900  1
  Si  Si2  1  0.19004000  0.49645200  0.87237900  1
  Si  Si3  1  0.81849600  0.49739200  0.02564900  1
  H  H0  1  0.11550700  0.05756300  0.72781700  1
  H  H1  1  0.86574900  0.98094100  0.17637100  1
  H  H2  1  0.98094100  0.86574900  0.67637100  1
  H  H3  1  0.05756300  0.11550700  0.22781700  1
  O  O0  1  0.47545000  0.02097800  0.47249800  1
  O  O1  1  0.02097800  0.47545000  0.97249800  1
  O  O2  1  0.62573500  0.66308700  0.27278600  1
  O  O3  1  0.39572000  0.32894100  0.08181800  1
  O  O4  1  0.32894100  0.39572000  0.58181800  1
  O  O5  1  0.66308700  0.62573500  0.77278600  1
  O  O6  1  0.21841100  0.96265100  0.57082200  1
  O  O7  1  0.78288600  0.02370200  0.35658600  1
  O  O8  1  0.02370200  0.78288600  0.85658600  1
  O  O9  1  0.96265100  0.21841100  0.07082200  1
loop_
_geom_bond_atom_site_label_1
_geom_bond_atom_site_label_2
_geom_bond_distance
_geom_bond_site_symmetry_2
H0 O6 0.984429 1_545
H1 O7 0.984472 1_565
H2 O8 0.984472 1_655
H3 O9 0.984429 1_455
O0 Si0 1.621863 1_545
O0 Si1 1.624044 1_555
O1 Si3 1.621863 1_456
O1 Si2 1.624044 1_555
O2 Si0 1.615371 1_555
O2 Si3 1.618904 1_555
O3 Si2 1.619019 1_554
O3 Si1 1.621529 1_555
O4 Si1 1.619019 1_555
O4 Si2 1.621529 1_555
O5 Si3 1.615371 1_556
O5 Si0 1.618904 1_555
O6 Si0 1.642940 1_555
O7 Si1 1.638766 1_555
O8 Si2 1.638766 1_555
O9 Si3 1.642940 1_555
