# generated using pymatgen
data_GaFe3
_symmetry_space_group_name_H-M   'P 1'
_cell_length_a   4.08933145
_cell_length_b   4.08933145
_cell_length_c   4.08933145
_cell_angle_alpha   60.00000000
_cell_angle_beta   60.00000000
_cell_angle_gamma   60.00000000
_symmetry_Int_Tables_number   1
_chemical_formula_structural   GaFe3
_chemical_formula_sum   'Ga1 Fe3'
_cell_volume   48.35506155
_cell_formula_units_Z   1
loop_
 _symmetry_equiv_pos_site_id
 _symmetry_equiv_pos_as_xyz
  1  'x, y, z'
loop_
 _atom_site_type_symbol
 _atom_site_label
 _atom_site_symmetry_multiplicity
 _atom_site_fract_x
 _atom_site_fract_y
 _atom_site_fract_z
 _atom_site_occupancy
  Ga  Ga0  1  0.00000000  0.00000000  0.00000000  1
  Fe  Fe0  1  0.50000000  0.50000000  0.50000000  1
  Fe  Fe1  1  0.75000000  0.75000000  0.75000000  1
  Fe  Fe2  1  0.25000000  0.25000000  0.25000000  1
loop_
_geom_bond_atom_site_label_1
_geom_bond_atom_site_label_2
_geom_bond_distance
_geom_bond_site_symmetry_2
Fe0 Fe2 2.504194 1_565
Fe0 Fe2 2.504194 1_655
Fe0 Fe1 2.504194 1_545
Fe0 Fe1 2.504194 1_455
Fe0 Fe2 2.504194 1_556
Fe0 Fe1 2.504194 1_555
Fe0 Fe1 2.504194 1_554
Fe0 Fe2 2.504194 1_555
Fe0 Ga0 2.891594 1_656
Fe0 Ga0 2.891594 1_665
Fe0 Ga0 2.891594 1_566
Fe0 Ga0 2.891594 1_655
Fe0 Ga0 2.891594 1_565
Fe0 Ga0 2.891594 1_556
Fe1 Ga0 2.504194 1_665
Fe1 Ga0 2.504194 1_666
Fe1 Ga0 2.504194 1_656
Fe1 Ga0 2.504194 1_566
Fe1 Fe2 2.891594 1_656
Fe1 Fe2 2.891594 1_565
Fe1 Fe2 2.891594 1_655
Fe1 Fe2 2.891594 1_665
Fe1 Fe2 2.891594 1_556
Fe1 Fe2 2.891594 1_566
Fe2 Ga0 2.504194 1_565
Fe2 Ga0 2.504194 1_555
Fe2 Ga0 2.504194 1_556
Fe2 Ga0 2.504194 1_655
