# generated using pymatgen
data_CaNd2Ti2ZnO9
_symmetry_space_group_name_H-M   'P 1'
_cell_length_a   5.47500200
_cell_length_b   5.72259773
_cell_length_c   23.33079569
_cell_angle_alpha   89.98106632
_cell_angle_beta   89.80182633
_cell_angle_gamma   89.70329721
_symmetry_Int_Tables_number   1
_chemical_formula_structural   CaNd2Ti2ZnO9
_chemical_formula_sum   'Ca4 Nd8 Ti8 Zn4 O36'
_cell_volume   730.96841044
_cell_formula_units_Z   4
loop_
 _symmetry_equiv_pos_site_id
 _symmetry_equiv_pos_as_xyz
  1  'x, y, z'
loop_
 _atom_site_type_symbol
 _atom_site_label
 _atom_site_symmetry_multiplicity
 _atom_site_fract_x
 _atom_site_fract_y
 _atom_site_fract_z
 _atom_site_occupancy
  Ca  Ca0  1  0.50832700  0.44892100  0.41175200  1
  Ca  Ca1  1  0.50780900  0.44914300  0.08018100  1
  Ca  Ca2  1  0.00439800  0.06093800  0.58654600  1
  Ca  Ca3  1  0.00961300  0.05893100  0.25524600  1
  Nd  Nd0  1  0.98100500  0.93677600  0.74798100  1
  Nd  Nd1  1  0.98384000  0.92821600  0.41342900  1
  Nd  Nd2  1  0.98653900  0.92934100  0.08245200  1
  Nd  Nd3  1  0.51756400  0.43949200  0.74937200  1
  Nd  Nd4  1  0.48445500  0.56188500  0.91769700  1
  Nd  Nd5  1  0.48265000  0.56243800  0.58391300  1
  Nd  Nd6  1  0.48381100  0.56372800  0.25290700  1
  Nd  Nd7  1  0.01952400  0.06117300  0.91795800  1
  Ti  Ti0  1  0.00172300  0.49993600  0.83332700  1
  Ti  Ti1  1  0.97047800  0.48116100  0.49712600  1
  Ti  Ti2  1  0.97134100  0.48114100  0.16536600  1
  Ti  Ti3  1  0.50967400  0.00439900  0.00030000  1
  Ti  Ti4  1  0.47471100  0.01273400  0.50145300  1
  Ti  Ti5  1  0.48950300  0.00331500  0.66602700  1
  Ti  Ti6  1  0.47529200  0.01368400  0.16897100  1
  Ti  Ti7  1  0.50101400  0.00797200  0.33318800  1
  Zn  Zn0  1  0.99892600  0.49492000  0.00240900  1
  Zn  Zn1  1  0.99803100  0.49404500  0.66497100  1
  Zn  Zn2  1  0.99774200  0.48958600  0.33392700  1
  Zn  Zn3  1  0.50118100  0.00004800  0.83320800  1
  O  O0  1  0.90408500  0.46991700  0.91404700  1
  O  O1  1  0.90961000  0.47140600  0.57784400  1
  O  O2  1  0.91171300  0.47177300  0.24604100  1
  O  O3  1  0.81434500  0.21045500  0.81524100  1
  O  O4  1  0.79865600  0.20271700  0.48179300  1
  O  O5  1  0.79943500  0.20275100  0.15005600  1
  O  O6  1  0.78971400  0.18928300  0.68166300  1
  O  O7  1  0.79712400  0.18417100  0.34758800  1
  O  O8  1  0.79914900  0.18527100  0.01545400  1
  O  O9  1  0.68762700  0.71020800  0.68120700  1
  O  O10  1  0.70786600  0.69760100  0.48323700  1
  O  O11  1  0.69458100  0.71394500  0.34824400  1
  O  O12  1  0.70929000  0.69238600  0.81662900  1
  O  O13  1  0.70897200  0.69793000  0.15172500  1
  O  O14  1  0.69299000  0.71471800  0.01846400  1
  O  O15  1  0.59728000  0.97123000  0.92038700  1
  O  O16  1  0.59229400  0.97557100  0.58000600  1
  O  O17  1  0.59311100  0.97734900  0.24866100  1
  O  O18  1  0.41386300  0.02935900  0.41780600  1
  O  O19  1  0.40206400  0.02926200  0.74609700  1
  O  O20  1  0.41367300  0.03223600  0.08647200  1
  O  O21  1  0.31365200  0.28896200  0.98389900  1
  O  O22  1  0.29561700  0.30965100  0.84985200  1
  O  O23  1  0.30101700  0.29191500  0.51625100  1
  O  O24  1  0.31763100  0.29455400  0.65004600  1
  O  O25  1  0.30172800  0.29222300  0.18476100  1
  O  O26  1  0.31924500  0.29196600  0.31856300  1
  O  O27  1  0.21208900  0.81155800  0.98666600  1
  O  O28  1  0.21139800  0.81183200  0.64904900  1
  O  O29  1  0.21773200  0.81133100  0.31891600  1
  O  O30  1  0.19093700  0.78821100  0.85156300  1
  O  O31  1  0.21343700  0.80707700  0.51534400  1
  O  O32  1  0.21515600  0.80696400  0.18357900  1
  O  O33  1  0.09775500  0.53068300  0.75246200  1
  O  O34  1  0.09764500  0.52453900  0.42127600  1
  O  O35  1  0.09836900  0.52506900  0.08940400  1
loop_
_geom_bond_atom_site_label_1
_geom_bond_atom_site_label_2
_geom_bond_distance
_geom_bond_site_symmetry_2
Ca0 O34 2.297574 1_555
Ca0 O11 2.353618 1_555
Ca0 O10 2.455716 1_555
Ca0 O18 2.462579 1_555
Ca0 O26 2.575258 1_555
Ca0 O7 2.645146 1_555
Ca0 O4 2.678679 1_555
Ca0 O23 2.833652 1_555
Ca1 O35 2.290606 1_555
Ca1 O14 2.327101 1_555
Ca1 O20 2.447683 1_555
Ca1 O13 2.461024 1_555
Ca1 O21 2.654098 1_554
Ca1 O8 2.657988 1_555
Ca1 O5 2.681093 1_555
Ca1 O25 2.832440 1_555
Ca2 O16 2.316579 1_445
Ca2 O28 2.331604 1_545
Ca2 O1 2.411611 1_455
Ca2 O31 2.480147 1_545
Ca2 O6 2.611463 1_455
Ca2 O24 2.639284 1_555
Ca2 O23 2.660182 1_555
Ca2 O4 2.812188 1_455
Ca3 O17 2.335605 1_445
Ca3 O29 2.346534 1_545
Ca3 O2 2.429467 1_455
Ca3 O32 2.472452 1_545
Ca3 O7 2.546300 1_455
Ca3 O26 2.622306 1_555
Ca3 O25 2.654606 1_555
Ca3 O5 2.834230 1_455
Nd0 O6 2.360707 1_565
Nd0 O19 2.368200 1_665
Nd0 O3 2.392662 1_565
Nd0 O33 2.409352 1_655
Nd0 O9 2.593901 1_555
Nd0 O12 2.595718 1_555
Nd0 O28 2.720586 1_655
Nd0 O30 2.809236 1_655
Nd1 O7 2.354571 1_565
Nd1 O34 2.396628 1_655
Nd1 O18 2.429886 1_665
Nd1 O4 2.452246 1_565
Nd1 O11 2.522402 1_555
Nd1 O10 2.584462 1_555
Nd1 O29 2.630991 1_655
Nd1 O31 2.779392 1_655
Nd2 O8 2.373806 1_565
Nd2 O35 2.395656 1_655
Nd2 O20 2.416648 1_665
Nd2 O5 2.441105 1_565
Nd2 O14 2.521604 1_555
Nd2 O13 2.584114 1_555
Nd2 O27 2.635661 1_654
Nd2 O32 2.762977 1_655
Nd3 O33 2.355181 1_555
Nd3 O12 2.384781 1_555
Nd3 O9 2.408156 1_555
Nd3 O19 2.435711 1_555
Nd3 O3 2.591079 1_555
Nd3 O6 2.594018 1_555
Nd3 O24 2.698984 1_555
Nd3 O22 2.740956 1_555
Nd4 O0 2.355586 1_555
Nd4 O22 2.384579 1_555
Nd4 O21 2.388089 1_555
Nd4 O15 2.426572 1_555
Nd4 O30 2.575841 1_555
Nd4 O27 2.610969 1_555
Nd4 O12 2.760695 1_555
Nd4 O14 2.761489 1_556
Nd5 O24 2.355871 1_555
Nd5 O1 2.396034 1_555
Nd5 O23 2.430212 1_555
Nd5 O16 2.443821 1_555
Nd5 O28 2.552580 1_555
Nd5 O31 2.585565 1_555
Nd5 O9 2.675053 1_555
Nd5 O10 2.761241 1_555
Nd6 O26 2.362249 1_555
Nd6 O2 2.403291 1_555
Nd6 O25 2.442185 1_555
Nd6 O17 2.446354 1_555
Nd6 O29 2.542870 1_555
Nd6 O32 2.590561 1_555
Nd6 O11 2.654685 1_555
Nd6 O13 2.769596 1_555
Nd7 O15 2.371475 1_445
Nd7 O30 2.386770 1_545
Nd7 O27 2.390862 1_545
Nd7 O0 2.421573 1_455
Nd7 O21 2.588341 1_555
Nd7 O22 2.614545 1_555
Nd7 O8 2.665968 1_456
Nd7 O3 2.782466 1_455
O0 Ti0 1.963599 1_655
O0 Zn0 2.132716 1_556
O1 Ti1 1.912186 1_555
O1 Zn1 2.095427 1_555
O2 Ti2 1.909984 1_555
O2 Zn2 2.108057 1_555
O3 Ti0 1.998959 1_655
O3 Zn3 2.140409 1_555
O4 Ti1 1.889487 1_555
O4 Ti4 2.133555 1_555
O5 Ti2 1.889355 1_555
O5 Ti6 2.128151 1_555
O6 Ti5 1.997441 1_555
O6 Zn1 2.123960 1_555
O7 Ti7 1.943912 1_555
O7 Zn2 2.092800 1_555
O8 Ti3 1.931136 1_555
O8 Zn0 2.108641 1_555
O9 Ti5 2.024583 1_565
O9 Zn1 2.129777 1_555
O10 Ti1 1.921176 1_555
O10 Ti4 2.243930 1_565
O11 Ti7 2.015286 1_565
O11 Zn2 2.118809 1_555
O12 Ti0 1.978348 1_655
O12 Zn3 2.127033 1_565
O13 Ti2 1.920484 1_555
O13 Ti6 2.244268 1_565
O14 Ti3 1.979955 1_565
O14 Zn0 2.121835 1_555
O15 Ti3 1.932694 1_566
O15 Zn3 2.108857 1_565
O16 Ti4 1.955749 1_565
O16 Ti5 2.088349 1_565
O17 Ti6 1.980588 1_565
O17 Ti7 2.041201 1_565
O18 Ti4 1.983087 1_555
O18 Ti7 2.033022 1_555
O19 Ti5 1.932427 1_555
O19 Zn3 2.111735 1_555
O20 Ti6 1.958009 1_555
O20 Ti3 2.082217 1_555
O21 Ti3 1.983524 1_556
O21 Zn0 2.125781 1_456
O22 Ti0 1.977213 1_555
O22 Zn3 2.129149 1_555
O23 Ti4 1.886363 1_555
O23 Ti1 2.152191 1_455
O24 Ti5 1.946271 1_555
O24 Zn1 2.112277 1_455
O25 Ti6 1.887253 1_555
O25 Ti2 2.151890 1_455
O26 Ti7 1.932168 1_555
O26 Zn2 2.116865 1_455
O27 Ti3 1.998999 1_566
O27 Zn0 2.190608 1_456
O28 Ti5 1.922957 1_565
O28 Zn1 2.197359 1_455
O29 Ti7 1.950531 1_565
O29 Zn2 2.232274 1_455
O30 Ti0 1.999216 1_555
O30 Zn3 2.134035 1_565
O31 Ti4 1.884236 1_565
O31 Ti1 2.336401 1_455
O32 Ti6 1.886236 1_565
O32 Ti2 2.338647 1_455
O33 Ti0 1.964868 1_555
O33 Zn1 2.125531 1_455
O34 Ti1 1.915979 1_455
O34 Zn2 2.121656 1_455
O35 Ti2 1.918530 1_455
O35 Zn0 2.110586 1_455
