# generated using pymatgen
data_Fe21HO32
_symmetry_space_group_name_H-M   'P 1'
_cell_length_a   8.18595314
_cell_length_b   8.18595314
_cell_length_c   16.39772500
_cell_angle_alpha   90.00000000
_cell_angle_beta   90.00000000
_cell_angle_gamma   90.06051578
_symmetry_Int_Tables_number   1
_chemical_formula_structural   Fe21HO32
_chemical_formula_sum   'Fe42 H2 O64'
_cell_volume   1098.80813264
_cell_formula_units_Z   2
loop_
 _symmetry_equiv_pos_site_id
 _symmetry_equiv_pos_as_xyz
  1  'x, y, z'
loop_
 _atom_site_type_symbol
 _atom_site_label
 _atom_site_symmetry_multiplicity
 _atom_site_fract_x
 _atom_site_fract_y
 _atom_site_fract_z
 _atom_site_occupancy
  Fe  Fe0  1  0.00053300  0.00053300  0.00029800  1
  Fe  Fe1  1  0.99946700  0.99946700  0.50029800  1
  Fe  Fe2  1  0.99782200  0.49950300  0.25019400  1
  Fe  Fe3  1  0.00217800  0.50049700  0.75019400  1
  Fe  Fe4  1  0.12743300  0.12743300  0.31255300  1
  Fe  Fe5  1  0.12752400  0.62627100  0.06455700  1
  Fe  Fe6  1  0.12876300  0.12876300  0.81266700  1
  Fe  Fe7  1  0.12818100  0.62473400  0.56415000  1
  Fe  Fe8  1  0.12814500  0.37393500  0.43646100  1
  Fe  Fe9  1  0.12746100  0.87093700  0.18709200  1
  Fe  Fe10  1  0.12804600  0.37537300  0.93621400  1
  Fe  Fe11  1  0.12906300  0.87253900  0.68709200  1
  Fe  Fe12  1  0.24988000  0.24988000  0.12461400  1
  Fe  Fe13  1  0.25332900  0.25332900  0.62662600  1
  Fe  Fe14  1  0.24913900  0.74975500  0.37495400  1
  Fe  Fe15  1  0.25024500  0.75086100  0.87495400  1
  Fe  Fe16  1  0.37526600  0.87181900  0.06415000  1
  Fe  Fe17  1  0.37537300  0.12804600  0.93621400  1
  Fe  Fe18  1  0.37372900  0.87247600  0.56455700  1
  Fe  Fe19  1  0.37393500  0.12814500  0.43646100  1
  Fe  Fe20  1  0.48352100  0.48352100  0.25834100  1
  Fe  Fe21  1  0.51647900  0.51647900  0.75834100  1
  Fe  Fe22  1  0.49950300  0.99782200  0.25019400  1
  Fe  Fe23  1  0.49984400  0.49984400  0.00159800  1
  Fe  Fe24  1  0.50049700  0.00217800  0.75019400  1
  Fe  Fe25  1  0.50015600  0.50015600  0.50159800  1
  Fe  Fe26  1  0.62627100  0.12752400  0.06455700  1
  Fe  Fe27  1  0.62473400  0.12818100  0.56415000  1
  Fe  Fe28  1  0.62606500  0.87185500  0.93646100  1
  Fe  Fe29  1  0.62462700  0.87195400  0.43621400  1
  Fe  Fe30  1  0.74975500  0.24913900  0.37495400  1
  Fe  Fe31  1  0.74667100  0.74667100  0.12662600  1
  Fe  Fe32  1  0.75086100  0.25024500  0.87495400  1
  Fe  Fe33  1  0.75012000  0.75012000  0.62461400  1
  Fe  Fe34  1  0.87093700  0.12746100  0.18709200  1
  Fe  Fe35  1  0.87181900  0.37526600  0.06415000  1
  Fe  Fe36  1  0.87253900  0.12906300  0.68709200  1
  Fe  Fe37  1  0.87247600  0.37372900  0.56455700  1
  Fe  Fe38  1  0.87185500  0.62606500  0.93646100  1
  Fe  Fe39  1  0.87195400  0.62462700  0.43621400  1
  Fe  Fe40  1  0.87123700  0.87123700  0.31266700  1
  Fe  Fe41  1  0.87256700  0.87256700  0.81255300  1
  H  H0  1  0.37793100  0.37793100  0.31105400  1
  H  H1  1  0.62206900  0.62206900  0.81105400  1
  O  O0  1  0.11281000  0.11281000  0.19434300  1
  O  O1  1  0.11334100  0.11334100  0.69474400  1
  O  O2  1  0.11339100  0.38855300  0.55644000  1
  O  O3  1  0.11198500  0.38949100  0.05647700  1
  O  O4  1  0.13400800  0.13400800  0.93202100  1
  O  O5  1  0.11418100  0.64500500  0.67788000  1
  O  O6  1  0.13402800  0.13402800  0.43291000  1
  O  O7  1  0.11680100  0.35718500  0.32193200  1
  O  O8  1  0.11459400  0.64272900  0.17856400  1
  O  O9  1  0.13616700  0.86654800  0.06700200  1
  O  O10  1  0.11460900  0.35624600  0.82205800  1
  O  O11  1  0.11237700  0.61198600  0.94391200  1
  O  O12  1  0.13345200  0.86383300  0.56700200  1
  O  O13  1  0.11318300  0.61052000  0.44373900  1
  O  O14  1  0.11209600  0.88730900  0.30534100  1
  O  O15  1  0.11269100  0.88790400  0.80534100  1
  O  O16  1  0.38949100  0.11198500  0.05647700  1
  O  O17  1  0.37908700  0.37908700  0.18027500  1
  O  O18  1  0.38855300  0.11339100  0.55644000  1
  O  O19  1  0.35718500  0.11680100  0.32193200  1
  O  O20  1  0.35742500  0.35742500  0.44138000  1
  O  O21  1  0.37414900  0.37414900  0.68707400  1
  O  O22  1  0.35643000  0.35643000  0.94259200  1
  O  O23  1  0.35545600  0.64388500  0.05736400  1
  O  O24  1  0.35499500  0.88581900  0.17788000  1
  O  O25  1  0.38801400  0.88762300  0.44391200  1
  O  O26  1  0.35624600  0.11460900  0.82205800  1
  O  O27  1  0.37922300  0.63986300  0.31037400  1
  O  O28  1  0.35611500  0.64454400  0.55736400  1
  O  O29  1  0.35727100  0.88540600  0.67856400  1
  O  O30  1  0.38948000  0.88681700  0.94373900  1
  O  O31  1  0.36013700  0.62077700  0.81037400  1
  O  O32  1  0.64272900  0.11459400  0.17856400  1
  O  O33  1  0.64388500  0.35545600  0.05736400  1
  O  O34  1  0.63986300  0.37922300  0.31037400  1
  O  O35  1  0.62585100  0.62585100  0.18707400  1
  O  O36  1  0.64500500  0.11418100  0.67788000  1
  O  O37  1  0.61198600  0.11237700  0.94391200  1
  O  O38  1  0.61052000  0.11318300  0.44373900  1
  O  O39  1  0.64454400  0.35611500  0.55736400  1
  O  O40  1  0.62077700  0.36013700  0.81037400  1
  O  O41  1  0.64357000  0.64357000  0.44259200  1
  O  O42  1  0.62091300  0.62091300  0.68027500  1
  O  O43  1  0.64257500  0.64257500  0.94138000  1
  O  O44  1  0.61144700  0.88660900  0.05644000  1
  O  O45  1  0.64375400  0.88539100  0.32205800  1
  O  O46  1  0.61050900  0.88801500  0.55647700  1
  O  O47  1  0.64281500  0.88319900  0.82193200  1
  O  O48  1  0.86383300  0.13345200  0.56700200  1
  O  O49  1  0.86654800  0.13616700  0.06700200  1
  O  O50  1  0.88730900  0.11209600  0.30534100  1
  O  O51  1  0.88790400  0.11269100  0.80534100  1
  O  O52  1  0.88581900  0.35499500  0.17788000  1
  O  O53  1  0.88660900  0.61144700  0.05644000  1
  O  O54  1  0.88539100  0.64375400  0.32205800  1
  O  O55  1  0.88801500  0.61050900  0.55647700  1
  O  O56  1  0.88540600  0.35727100  0.67856400  1
  O  O57  1  0.88319900  0.64281500  0.82193200  1
  O  O58  1  0.88681700  0.38948000  0.94373900  1
  O  O59  1  0.88762300  0.38801400  0.44391200  1
  O  O60  1  0.88665900  0.88665900  0.19474400  1
  O  O61  1  0.88719000  0.88719000  0.69434300  1
  O  O62  1  0.86597200  0.86597200  0.93291000  1
  O  O63  1  0.86599200  0.86599200  0.43202100  1
loop_
_geom_bond_atom_site_label_1
_geom_bond_atom_site_label_2
_geom_bond_distance
_geom_bond_site_symmetry_2
Fe0 O49 1.906481 1_455
Fe0 O9 1.906481 1_545
Fe0 O4 1.907509 1_554
Fe0 O62 1.909223 1_444
Fe1 O12 1.906481 1_655
Fe1 O48 1.906481 1_565
Fe1 O63 1.907509 1_555
Fe1 O6 1.909223 1_665
Fe2 O54 1.905874 1_555
Fe2 O52 1.908861 1_555
Fe2 O8 1.914573 1_655
Fe2 O7 1.921460 1_655
Fe3 O10 1.905874 1_555
Fe3 O5 1.908861 1_555
Fe3 O56 1.914573 1_455
Fe3 O57 1.921460 1_455
Fe4 O7 1.889114 1_555
Fe4 O19 1.889114 1_555
Fe4 O0 1.945745 1_555
Fe4 O50 1.973064 1_455
Fe4 O14 1.973064 1_545
Fe4 O6 1.975056 1_555
Fe5 O23 1.874965 1_555
Fe5 O8 1.877298 1_555
Fe5 O3 1.946819 1_555
Fe5 O9 1.968502 1_555
Fe5 O53 1.980199 1_455
Fe5 O11 1.985624 1_554
Fe6 O10 1.872232 1_555
Fe6 O26 1.872232 1_555
Fe6 O1 1.941885 1_555
Fe6 O4 1.958075 1_555
Fe6 O51 1.979555 1_455
Fe6 O15 1.979555 1_545
Fe7 O5 1.875796 1_555
Fe7 O28 1.876023 1_555
Fe7 O2 1.941147 1_555
Fe7 O12 1.958242 1_555
Fe7 O55 1.973326 1_455
Fe7 O13 1.981691 1_555
Fe8 O20 1.883605 1_555
Fe8 O7 1.885295 1_555
Fe8 O13 1.944338 1_555
Fe8 O6 1.965371 1_555
Fe8 O2 1.974723 1_555
Fe8 O59 1.976174 1_455
Fe9 O24 1.872537 1_555
Fe9 O8 1.876175 1_555
Fe9 O14 1.947715 1_555
Fe9 O9 1.970821 1_555
Fe9 O60 1.979507 1_455
Fe9 O0 1.987277 1_565
Fe10 O22 1.879037 1_555
Fe10 O10 1.881643 1_555
Fe10 O11 1.945380 1_555
Fe10 O4 1.977652 1_555
Fe10 O3 1.979802 1_556
Fe10 O58 1.982029 1_455
Fe11 O5 1.872537 1_555
Fe11 O29 1.876175 1_555
Fe11 O15 1.947715 1_555
Fe11 O12 1.970821 1_555
Fe11 O1 1.979507 1_565
Fe11 O61 1.987277 1_455
Fe12 O17 1.751590 1_555
Fe12 O0 1.955168 1_555
Fe12 O3 1.957387 1_555
Fe12 O16 1.957387 1_555
Fe13 O21 1.713703 1_555
Fe13 O18 1.965901 1_555
Fe13 O2 1.965901 1_555
Fe13 O1 1.967538 1_555
Fe14 O27 1.751168 1_555
Fe14 O13 1.951207 1_555
Fe14 O14 1.957569 1_555
Fe14 O25 1.960092 1_555
Fe15 O31 1.751168 1_555
Fe15 O30 1.951207 1_555
Fe15 O15 1.957569 1_555
Fe15 O11 1.960092 1_555
Fe16 O24 1.875796 1_555
Fe16 O23 1.876023 1_555
Fe16 O44 1.941147 1_555
Fe16 O9 1.958242 1_555
Fe16 O16 1.973326 1_565
Fe16 O30 1.981691 1_554
Fe17 O22 1.879037 1_555
Fe17 O26 1.881643 1_555
Fe17 O37 1.945380 1_555
Fe17 O4 1.977652 1_555
Fe17 O16 1.979802 1_556
Fe17 O30 1.982029 1_545
Fe18 O28 1.874965 1_555
Fe18 O29 1.877298 1_555
Fe18 O46 1.946819 1_555
Fe18 O12 1.968502 1_555
Fe18 O18 1.980199 1_565
Fe18 O25 1.985624 1_555
Fe19 O20 1.883605 1_555
Fe19 O19 1.885295 1_555
Fe19 O38 1.944338 1_555
Fe19 O6 1.965371 1_555
Fe19 O18 1.974723 1_555
Fe19 O25 1.976174 1_545
Fe20 H0 1.496590 1_555
Fe20 O34 1.759871 1_555
Fe20 O27 1.759871 1_555
Fe20 O17 1.760342 1_555
Fe20 O35 2.019343 1_555
Fe21 H1 1.496590 1_555
Fe21 O40 1.759871 1_555
Fe21 O31 1.759871 1_555
Fe21 O42 1.760342 1_555
Fe21 O21 2.019343 1_555
Fe22 O45 1.905874 1_555
Fe22 O24 1.908861 1_555
Fe22 O32 1.914573 1_565
Fe22 O19 1.921460 1_565
Fe23 O33 1.904326 1_555
Fe23 O23 1.904326 1_555
Fe23 O22 1.920867 1_554
Fe23 O43 1.924167 1_554
Fe24 O26 1.905874 1_555
Fe24 O36 1.908861 1_555
Fe24 O29 1.914573 1_545
Fe24 O47 1.921460 1_545
Fe25 O28 1.904326 1_555
Fe25 O39 1.904326 1_555
Fe25 O41 1.920867 1_555
Fe25 O20 1.924167 1_555
Fe26 O33 1.874965 1_555
Fe26 O32 1.877298 1_555
Fe26 O16 1.946819 1_555
Fe26 O49 1.968502 1_555
Fe26 O44 1.980199 1_545
Fe26 O37 1.985624 1_554
Fe27 O36 1.875796 1_555
Fe27 O39 1.876023 1_555
Fe27 O18 1.941147 1_555
Fe27 O48 1.958242 1_555
Fe27 O46 1.973326 1_545
Fe27 O38 1.981691 1_555
Fe28 O43 1.883605 1_555
Fe28 O47 1.885295 1_555
Fe28 O30 1.944338 1_555
Fe28 O62 1.965371 1_555
Fe28 O44 1.974723 1_556
Fe28 O37 1.976174 1_565
Fe29 O41 1.879037 1_555
Fe29 O45 1.881643 1_555
Fe29 O25 1.945380 1_555
Fe29 O63 1.977652 1_555
Fe29 O46 1.979802 1_555
Fe29 O38 1.982029 1_565
Fe30 O34 1.751168 1_555
Fe30 O38 1.951207 1_555
Fe30 O50 1.957569 1_555
Fe30 O59 1.960092 1_555
Fe31 O35 1.713703 1_555
Fe31 O44 1.965901 1_555
Fe31 O53 1.965901 1_555
Fe31 O60 1.967538 1_555
Fe32 O40 1.751168 1_555
Fe32 O58 1.951207 1_555
Fe32 O51 1.957569 1_555
Fe32 O37 1.960092 1_555
Fe33 O42 1.751590 1_555
Fe33 O61 1.955168 1_555
Fe33 O55 1.957387 1_555
Fe33 O46 1.957387 1_555
Fe34 O52 1.872537 1_555
Fe34 O32 1.876175 1_555
Fe34 O50 1.947715 1_555
Fe34 O49 1.970821 1_555
Fe34 O60 1.979507 1_545
Fe34 O0 1.987277 1_655
Fe35 O52 1.875796 1_555
Fe35 O33 1.876023 1_555
Fe35 O53 1.941147 1_555
Fe35 O49 1.958242 1_555
Fe35 O3 1.973326 1_655
Fe35 O58 1.981691 1_554
Fe36 O36 1.872537 1_555
Fe36 O56 1.876175 1_555
Fe36 O51 1.947715 1_555
Fe36 O48 1.970821 1_555
Fe36 O1 1.979507 1_655
Fe36 O61 1.987277 1_545
Fe37 O39 1.874965 1_555
Fe37 O56 1.877298 1_555
Fe37 O55 1.946819 1_555
Fe37 O48 1.968502 1_555
Fe37 O2 1.980199 1_655
Fe37 O59 1.985624 1_555
Fe38 O43 1.883605 1_555
Fe38 O57 1.885295 1_555
Fe38 O58 1.944338 1_555
Fe38 O62 1.965371 1_555
Fe38 O53 1.974723 1_556
Fe38 O11 1.976174 1_655
Fe39 O41 1.879037 1_555
Fe39 O54 1.881643 1_555
Fe39 O59 1.945380 1_555
Fe39 O63 1.977652 1_555
Fe39 O55 1.979802 1_555
Fe39 O13 1.982029 1_655
Fe40 O54 1.872232 1_555
Fe40 O45 1.872232 1_555
Fe40 O60 1.941885 1_555
Fe40 O63 1.958075 1_555
Fe40 O14 1.979555 1_655
Fe40 O50 1.979555 1_565
Fe41 O57 1.889114 1_555
Fe41 O47 1.889114 1_555
Fe41 O61 1.945745 1_555
Fe41 O51 1.973064 1_565
Fe41 O15 1.973064 1_655
Fe41 O62 1.975056 1_555
H0 O27 2.144207 1_555
H0 O34 2.144207 1_555
H0 O17 2.144520 1_555
H0 O20 2.150181 1_555
H0 O7 2.151561 1_555
H0 O19 2.151561 1_555
H1 O40 2.144207 1_555
H1 O31 2.144207 1_555
H1 O42 2.144520 1_555
H1 O43 2.150181 1_555
H1 O57 2.151561 1_555
H1 O47 2.151561 1_555
