# generated using pymatgen
data_K4Ti3Ni(PO4)6
_symmetry_space_group_name_H-M   'P 1'
_cell_length_a   9.96819000
_cell_length_b   9.96286000
_cell_length_c   9.97207597
_cell_angle_alpha   89.82986039
_cell_angle_beta   90.00000000
_cell_angle_gamma   90.00000000
_symmetry_Int_Tables_number   1
_chemical_formula_structural   K4Ti3Ni(PO4)6
_chemical_formula_sum   'K8 Ti6 Ni2 P12 O48'
_cell_volume   990.33926513
_cell_formula_units_Z   2
loop_
 _symmetry_equiv_pos_site_id
 _symmetry_equiv_pos_as_xyz
  1  'x, y, z'
loop_
 _atom_site_type_symbol
 _atom_site_label
 _atom_site_symmetry_multiplicity
 _atom_site_fract_x
 _atom_site_fract_y
 _atom_site_fract_z
 _atom_site_occupancy
  K  K0  1  0.43540100  0.18770700  0.56316400  1
  K  K1  1  0.70656500  0.04768500  0.21207100  1
  K  K2  1  0.20656500  0.95231500  0.78792900  1
  K  K3  1  0.93540100  0.81229300  0.43683600  1
  K  K4  1  0.56856900  0.67970700  0.93029100  1
  K  K5  1  0.29357600  0.53941400  0.30053100  1
  K  K6  1  0.79357600  0.46058600  0.69946900  1
  K  K7  1  0.06856900  0.32029300  0.06970900  1
  Ti  Ti0  1  0.08522500  0.16725700  0.41368200  1
  Ti  Ti1  1  0.85980600  0.11025200  0.85620800  1
  Ti  Ti2  1  0.35980600  0.88974800  0.14379200  1
  Ti  Ti3  1  0.58522500  0.83274300  0.58631800  1
  Ti  Ti4  1  0.91349200  0.66020700  0.08770100  1
  Ti  Ti5  1  0.41349200  0.33979300  0.91229900  1
  Ni  Ni0  1  0.14548700  0.60443900  0.64472500  1
  Ni  Ni1  1  0.64548700  0.39556100  0.35527500  1
  P  P0  1  0.37320400  0.20818300  0.22600800  1
  P  P1  1  0.77292000  0.12235300  0.54152300  1
  P  P2  1  0.54317700  0.02381200  0.87327500  1
  P  P3  1  0.04317700  0.97618800  0.12672500  1
  P  P4  1  0.27292000  0.87764700  0.45847700  1
  P  P5  1  0.87320400  0.79181700  0.77399200  1
  P  P6  1  0.62500700  0.70451900  0.27194000  1
  P  P7  1  0.22799900  0.62646900  0.95532200  1
  P  P8  1  0.45587800  0.52061600  0.62305600  1
  P  P9  1  0.95587800  0.47938400  0.37694400  1
  P  P10  1  0.72799900  0.37353100  0.04467800  1
  P  P11  1  0.12500700  0.29548100  0.72806000  1
  O  O0  1  0.14592100  0.24863400  0.58094700  1
  O  O1  1  0.70125100  0.22286800  0.45562700  1
  O  O2  1  0.23534400  0.22532200  0.29853900  1
  O  O3  1  0.02275600  0.19785400  0.79792400  1
  O  O4  1  0.76988800  0.16587800  0.69262300  1
  O  O5  1  0.49931800  0.17097200  0.85270800  1
  O  O6  1  0.92241800  0.10086400  0.50069000  1
  O  O7  1  0.41539800  0.05695400  0.22921800  1
  O  O8  1  0.02036100  0.05247300  0.25956000  1
  O  O9  1  0.95455400  0.04796500  0.02088500  1
  O  O10  1  0.69112900  0.01769500  0.92014400  1
  O  O11  1  0.19998800  0.01493000  0.47384700  1
  O  O12  1  0.69998800  0.98507000  0.52615300  1
  O  O13  1  0.19112900  0.98230500  0.07985600  1
  O  O14  1  0.45455400  0.95203500  0.97911500  1
  O  O15  1  0.52036100  0.94752700  0.74044000  1
  O  O16  1  0.91539800  0.94304600  0.77078200  1
  O  O17  1  0.42241800  0.89913600  0.49931000  1
  O  O18  1  0.99931800  0.82902800  0.14729200  1
  O  O19  1  0.26988800  0.83412200  0.30737700  1
  O  O20  1  0.52275600  0.80214600  0.20207600  1
  O  O21  1  0.73534400  0.77467800  0.70146100  1
  O  O22  1  0.20125100  0.77713200  0.54437300  1
  O  O23  1  0.64592100  0.75136600  0.41905300  1
  O  O24  1  0.85164700  0.74994300  0.92288100  1
  O  O25  1  0.29804800  0.72849000  0.05203100  1
  O  O26  1  0.75965900  0.72873800  0.19637600  1
  O  O27  1  0.97382500  0.70707900  0.70131300  1
  O  O28  1  0.24009500  0.67848800  0.81324900  1
  O  O29  1  0.50019800  0.67114500  0.64671300  1
  O  O30  1  0.08070500  0.60488100  0.00170700  1
  O  O31  1  0.57197500  0.56292000  0.25929800  1
  O  O32  1  0.97276900  0.54958400  0.23485000  1
  O  O33  1  0.05262100  0.54961900  0.46916600  1
  O  O34  1  0.31157700  0.51141000  0.57541400  1
  O  O35  1  0.80224900  0.50938200  0.01999000  1
  O  O36  1  0.30224900  0.49061800  0.98001000  1
  O  O37  1  0.81157700  0.48859000  0.42458600  1
  O  O38  1  0.55262100  0.45038100  0.53083400  1
  O  O39  1  0.47276900  0.45041600  0.76515000  1
  O  O40  1  0.07197500  0.43708000  0.74070200  1
  O  O41  1  0.58070500  0.39511900  0.99829300  1
  O  O42  1  0.00019800  0.32885500  0.35328700  1
  O  O43  1  0.74009500  0.32151200  0.18675100  1
  O  O44  1  0.47382500  0.29292100  0.29868700  1
  O  O45  1  0.25965900  0.27126200  0.80362400  1
  O  O46  1  0.79804800  0.27151000  0.94796900  1
  O  O47  1  0.35164700  0.25005700  0.07711900  1
loop_
_geom_bond_atom_site_label_1
_geom_bond_atom_site_label_2
_geom_bond_distance
_geom_bond_site_symmetry_2
K0 O44 2.860922 1_555
K0 O1 2.879789 1_555
K0 O38 2.883203 1_555
K0 O17 2.949349 1_545
K0 O0 2.954181 1_555
K0 O5 2.961030 1_555
K0 O11 3.045027 1_555
K0 O45 3.086030 1_555
K0 O15 3.089197 1_545
K0 O2 3.327914 1_555
K0 O39 3.328299 1_555
K0 O12 3.342534 1_545
K0 O34 3.455638 1_555
K1 O43 2.759330 1_555
K1 O7 2.908923 1_555
K1 O10 2.931335 1_554
K1 O1 2.995498 1_555
K1 O20 3.058225 1_545
K1 O9 3.121793 1_555
K1 O8 3.164004 1_655
K1 O12 3.192426 1_545
K1 O26 3.225655 1_545
K2 O28 2.759330 1_555
K2 O16 2.908923 1_455
K2 O13 2.931335 1_556
K2 O22 2.995498 1_555
K2 O3 3.058225 1_565
K2 O14 3.121793 1_555
K2 O15 3.164004 1_555
K2 O11 3.192426 1_565
K2 O45 3.225655 1_565
K3 O27 2.860922 1_555
K3 O22 2.879789 1_655
K3 O33 2.883203 1_655
K3 O6 2.949349 1_565
K3 O23 2.954181 1_555
K3 O18 2.961030 1_555
K3 O12 3.045027 1_555
K3 O26 3.086030 1_555
K3 O8 3.089197 1_665
K3 O21 3.327914 1_555
K3 O32 3.328299 1_555
K3 O11 3.342534 1_665
K3 O37 3.455638 1_555
K4 O24 2.908130 1_555
K4 O29 2.910326 1_555
K4 O41 2.915827 1_555
K4 O21 2.975445 1_555
K4 O39 2.977361 1_555
K4 O14 2.982926 1_555
K4 O25 2.997531 1_556
K4 O20 3.010268 1_556
K4 O35 3.016055 1_556
K4 O36 3.291931 1_555
K4 O15 3.302232 1_555
K4 O26 3.303831 1_556
K4 O28 3.476127 1_555
K4 O31 3.478000 1_556
K5 O34 2.760330 1_555
K5 O31 2.815086 1_555
K5 O33 2.933994 1_555
K5 O19 2.946607 1_555
K5 O44 3.042987 1_555
K5 O25 3.108620 1_555
K5 O2 3.182757 1_555
K5 O36 3.235602 1_554
K5 O32 3.265763 1_455
K6 O37 2.760330 1_555
K6 O40 2.815086 1_655
K6 O38 2.933994 1_555
K6 O4 2.946607 1_555
K6 O27 3.042987 1_555
K6 O46 3.108620 1_555
K6 O21 3.182757 1_555
K6 O35 3.235602 1_556
K6 O39 3.265763 1_555
K7 O47 2.908130 1_555
K7 O42 2.910326 1_555
K7 O30 2.915827 1_555
K7 O2 2.975445 1_555
K7 O32 2.977361 1_455
K7 O9 2.982926 1_455
K7 O46 2.997531 1_454
K7 O3 3.010268 1_554
K7 O36 3.016055 1_554
K7 O35 3.291931 1_455
K7 O8 3.302232 1_555
K7 O45 3.303831 1_554
K7 O43 3.476127 1_455
K7 O40 3.478000 1_554
Ni0 O34 2.020301 1_555
Ni0 O40 2.055152 1_555
Ni0 O33 2.055678 1_555
Ni0 O22 2.064067 1_555
Ni0 O28 2.065236 1_555
Ni0 O27 2.072586 1_455
Ni1 O37 2.020301 1_555
Ni1 O31 2.055152 1_555
Ni1 O38 2.055678 1_555
Ni1 O1 2.064067 1_555
Ni1 O43 2.065236 1_555
Ni1 O44 2.072586 1_555
O0 P11 1.554837 1_555
O0 Ti0 1.952833 1_555
O1 P1 1.497271 1_555
O2 P0 1.562529 1_555
O2 Ti0 1.971893 1_555
O3 P11 1.570437 1_555
O3 Ti1 1.932594 1_455
O4 P1 1.569465 1_555
O4 Ti1 1.940678 1_555
O5 P2 1.543039 1_555
O5 Ti5 1.979878 1_555
O6 P1 1.559784 1_555
O6 Ti0 1.954666 1_655
O7 P0 1.564514 1_555
O7 Ti2 1.953525 1_545
O8 P3 1.545964 1_545
O8 Ti0 2.024445 1_555
O9 P3 1.549603 1_645
O9 Ti1 1.991929 1_554
O10 P2 1.548246 1_555
O10 Ti1 2.020015 1_555
O11 P4 1.556906 1_545
O11 Ti0 1.991581 1_555
O12 P1 1.556906 1_565
O12 Ti3 1.991581 1_555
O13 P3 1.548246 1_555
O13 Ti2 2.020015 1_555
O14 P2 1.549603 1_565
O14 Ti2 1.991929 1_556
O15 P2 1.545964 1_565
O15 Ti3 2.024445 1_555
O16 P5 1.564514 1_555
O16 Ti1 1.953525 1_565
O17 P4 1.559784 1_555
O17 Ti3 1.954666 1_555
O18 P3 1.543039 1_655
O18 Ti4 1.979878 1_555
O19 P4 1.569465 1_555
O19 Ti2 1.940678 1_555
O20 P6 1.570437 1_555
O20 Ti2 1.932594 1_555
O21 P5 1.562529 1_555
O21 Ti3 1.971893 1_555
O22 P4 1.497271 1_555
O23 P6 1.554837 1_555
O23 Ti3 1.952833 1_555
O24 P5 1.555947 1_555
O24 Ti4 1.967745 1_556
O25 P7 1.567338 1_554
O25 Ti2 1.950938 1_555
O26 P6 1.557738 1_555
O26 Ti4 1.999107 1_555
O27 P5 1.499223 1_555
O28 P7 1.511948 1_555
O29 P8 1.581781 1_555
O29 Ti3 1.915035 1_555
O30 P7 1.554154 1_554
O30 Ti4 1.954550 1_455
O31 P6 1.512139 1_555
O32 P9 1.587269 1_555
O32 Ti4 1.925466 1_555
O33 P9 1.506381 1_455
O34 P8 1.517706 1_555
O35 P10 1.561506 1_555
O35 Ti4 1.987345 1_555
O36 P7 1.561506 1_555
O36 Ti5 1.987345 1_555
O37 P9 1.517706 1_555
O38 P8 1.506381 1_555
O39 P8 1.587269 1_555
O39 Ti5 1.925466 1_555
O40 P11 1.512139 1_555
O41 P10 1.554154 1_556
O41 Ti5 1.954550 1_555
O42 P9 1.581781 1_455
O42 Ti0 1.915035 1_555
O43 P10 1.511948 1_555
O44 P0 1.499223 1_555
O45 P11 1.557738 1_555
O45 Ti5 1.999107 1_555
O46 P10 1.567338 1_556
O46 Ti1 1.950938 1_555
O47 P0 1.555947 1_555
O47 Ti5 1.967745 1_554
