# generated using pymatgen
data_BaLa7Mg5Nb3O24
_symmetry_space_group_name_H-M   'P 1'
_cell_length_a   5.71796600
_cell_length_b   9.87422980
_cell_length_c   9.91069221
_cell_angle_alpha   99.72159333
_cell_angle_beta   89.96406979
_cell_angle_gamma   106.76774242
_symmetry_Int_Tables_number   1
_chemical_formula_structural   BaLa7Mg5Nb3O24
_chemical_formula_sum   'Ba1 La7 Mg5 Nb3 O24'
_cell_volume   527.39155819
_cell_formula_units_Z   1
loop_
 _symmetry_equiv_pos_site_id
 _symmetry_equiv_pos_as_xyz
  1  'x, y, z'
loop_
 _atom_site_type_symbol
 _atom_site_label
 _atom_site_symmetry_multiplicity
 _atom_site_fract_x
 _atom_site_fract_y
 _atom_site_fract_z
 _atom_site_occupancy
  Ba  Ba0  1  0.31564200  0.62440800  0.43214100  1
  La  La0  1  0.45351200  0.90494400  0.82456200  1
  La  La1  1  0.94417500  0.87902400  0.32265600  1
  La  La2  1  0.17573300  0.36394500  0.05125200  1
  La  La3  1  0.68064700  0.36564600  0.58697900  1
  La  La4  1  0.79989200  0.59435700  0.93689500  1
  La  La5  1  0.07011300  0.12659900  0.69351900  1
  La  La6  1  0.56346800  0.14202000  0.17359500  1
  Mg  Mg0  1  0.99718200  0.99923800  0.00074600  1
  Mg  Mg1  1  0.50144900  0.00076500  0.50112000  1
  Mg  Mg2  1  0.62463200  0.25088400  0.87582100  1
  Mg  Mg3  1  0.74825100  0.50046400  0.25044200  1
  Mg  Mg4  1  0.25027900  0.50344900  0.75203000  1
  Nb  Nb0  1  0.88008200  0.74752600  0.62955100  1
  Nb  Nb1  1  0.36907900  0.75308500  0.12132000  1
  Nb  Nb2  1  0.12046200  0.24738800  0.37527600  1
  O  O0  1  0.14706600  0.89613100  0.54831900  1
  O  O1  1  0.99839300  0.85551600  0.81754900  1
  O  O2  1  0.79534300  0.65972200  0.42657700  1
  O  O3  1  0.65919900  0.88098600  0.61877400  1
  O  O4  1  0.54920900  0.60499500  0.13682300  1
  O  O5  1  0.40226600  0.37010000  0.28873500  1
  O  O6  1  0.64912400  0.88268700  0.03812900  1
  O  O7  1  0.50787600  0.85839900  0.31271700  1
  O  O8  1  0.25691000  0.65632300  0.92816900  1
  O  O9  1  0.90059800  0.37175500  0.36732500  1
  O  O10  1  0.07080700  0.62704700  0.18952800  1
  O  O11  1  0.16816700  0.89087000  0.11629200  1
  O  O12  1  0.90393500  0.39505400  0.79564100  1
  O  O13  1  0.07920900  0.62075500  0.64944300  1
  O  O14  1  0.84083700  0.11486100  0.89005500  1
  O  O15  1  0.76094000  0.36074900  0.07303400  1
  O  O16  1  0.50218000  0.14864900  0.67486600  1
  O  O17  1  0.40968100  0.38968700  0.86210200  1
  O  O18  1  0.59879100  0.60332200  0.69504400  1
  O  O19  1  0.34472700  0.11512200  0.96249300  1
  O  O20  1  0.32884500  0.11043100  0.37860400  1
  O  O21  1  0.24004500  0.34546200  0.56912300  1
  O  O22  1  0.98956400  0.14445100  0.18336800  1
  O  O23  1  0.85764100  0.10656200  0.46043700  1
loop_
_geom_bond_atom_site_label_1
_geom_bond_atom_site_label_2
_geom_bond_distance
_geom_bond_site_symmetry_2
Ba0 O13 2.541943 1_555
Ba0 O2 2.665081 1_555
Ba0 O7 2.721020 1_555
Ba0 O10 2.790777 1_555
Ba0 O5 2.842949 1_555
Ba0 O9 2.883255 1_455
Ba0 O3 3.041266 1_555
Ba0 O2 3.095291 1_455
Ba0 O18 3.136324 1_555
Ba0 O0 3.146609 1_555
Ba0 O21 3.192433 1_555
Ba0 O4 3.215573 1_555
La0 O3 2.365026 1_555
La0 O6 2.466014 1_556
La0 O1 2.504241 1_455
La0 O19 2.519586 1_565
La0 O14 2.553694 1_565
La0 O8 2.757239 1_555
La0 O16 2.981282 1_565
La1 O11 2.414131 1_655
La1 O7 2.444444 1_555
La1 O0 2.477670 1_655
La1 O2 2.482524 1_555
La1 O23 2.600353 1_565
La1 O20 2.653348 1_665
La1 O10 2.895727 1_655
La1 O22 3.109819 1_565
La2 O17 2.308638 1_554
La2 O15 2.373052 1_455
La2 O5 2.670420 1_555
La2 O22 2.677760 1_455
La2 O4 2.707901 1_555
La2 O14 2.868405 1_454
La2 O19 2.895332 1_554
La2 O10 2.946718 1_555
La2 O12 3.077400 1_454
La3 O12 2.361689 1_555
La3 O16 2.399726 1_555
La3 O21 2.473274 1_555
La3 O9 2.514262 1_555
La3 O18 2.580348 1_555
La3 O13 2.843432 1_655
La3 O23 3.090381 1_555
La3 O20 3.159852 1_555
La4 O12 2.435291 1_555
La4 O4 2.450454 1_556
La4 O8 2.511129 1_655
La4 O17 2.550776 1_555
La4 O18 2.684978 1_555
La4 O15 2.818717 1_556
La4 O10 2.866377 1_656
La4 O1 2.945646 1_555
La4 O6 3.210266 1_556
La5 O14 2.347650 1_455
La5 O16 2.426485 1_555
La5 O23 2.561590 1_455
La5 O21 2.611728 1_555
La5 O0 2.629487 1_545
La5 O3 2.838787 1_445
La5 O17 2.989635 1_555
La5 O1 3.053079 1_445
La5 O12 3.082195 1_455
La5 O19 3.129613 1_555
La6 O19 2.374034 1_554
La6 O22 2.431415 1_555
La6 O20 2.448345 1_555
La6 O15 2.500264 1_555
La6 O5 2.748145 1_555
La6 O11 2.805935 1_545
La6 O6 2.856811 1_545
La6 O9 2.925564 1_555
Mg0 O19 2.058097 1_664
Mg0 O6 2.060121 1_555
Mg0 O14 2.078272 1_564
Mg0 O11 2.105015 1_655
Mg0 O1 2.108538 1_554
Mg0 O22 2.119703 1_565
Mg1 O16 2.060270 1_555
Mg1 O23 2.077403 1_555
Mg1 O0 2.084810 1_545
Mg1 O7 2.146441 1_545
Mg1 O3 2.157477 1_545
Mg1 O20 2.164065 1_555
Mg2 O19 2.060508 1_555
Mg2 O12 2.068144 1_555
Mg2 O14 2.091520 1_555
Mg2 O16 2.095408 1_555
Mg2 O15 2.098201 1_556
Mg2 O17 2.107772 1_555
Mg3 O15 2.058714 1_555
Mg3 O10 2.061972 1_655
Mg3 O5 2.099884 1_555
Mg3 O2 2.102809 1_555
Mg3 O4 2.168079 1_555
Mg3 O9 2.202986 1_555
Mg4 O12 2.046085 1_455
Mg4 O17 2.070860 1_555
Mg4 O18 2.077366 1_555
Mg4 O13 2.094015 1_555
Mg4 O8 2.098696 1_555
Mg4 O21 2.171511 1_555
Nb0 O13 1.951455 1_655
Nb0 O1 1.995134 1_555
Nb0 O18 2.006289 1_555
Nb0 O2 2.050091 1_555
Nb0 O0 2.058330 1_655
Nb0 O3 2.085967 1_555
Nb1 O10 1.993129 1_555
Nb1 O8 2.004724 1_554
Nb1 O6 2.013428 1_555
Nb1 O11 2.024362 1_555
Nb1 O4 2.041516 1_555
Nb1 O7 2.041791 1_555
Nb2 O9 2.004578 1_455
Nb2 O5 2.005728 1_555
Nb2 O21 2.021749 1_555
Nb2 O23 2.023218 1_455
Nb2 O22 2.029942 1_455
Nb2 O20 2.048049 1_555
O0 O2 2.700504 1_455
O0 O3 2.843230 1_455
O0 O20 2.884077 1_565
O1 O3 2.856459 1_555
O2 O3 2.929454 1_555
O6 O8 2.738851 1_554
O10 O11 2.724757 1_555
O10 O15 2.770490 1_455
O18 O3 2.891515 1_555
O20 O5 2.773713 1_555
O20 O23 2.804809 1_455
O20 O22 2.867158 1_455
O21 O23 2.770331 1_455
O22 O5 2.794144 1_655
O22 O9 2.809958 1_555
O23 O3 2.903651 1_545
