# generated using pymatgen
data_Ba3B(PO4)3
_symmetry_space_group_name_H-M   'P 1'
_cell_length_a   13.90258442
_cell_length_b   13.90258442
_cell_length_c   13.90258442
_cell_angle_alpha   150.00648199
_cell_angle_beta   117.23893543
_cell_angle_gamma   71.10806823
_symmetry_Int_Tables_number   1
_chemical_formula_structural   Ba3B(PO4)3
_chemical_formula_sum   'Ba12 B4 P12 O48'
_cell_volume   1178.28042163
_cell_formula_units_Z   4
loop_
 _symmetry_equiv_pos_site_id
 _symmetry_equiv_pos_as_xyz
  1  'x, y, z'
loop_
 _atom_site_type_symbol
 _atom_site_label
 _atom_site_symmetry_multiplicity
 _atom_site_fract_x
 _atom_site_fract_y
 _atom_site_fract_z
 _atom_site_occupancy
  Ba  Ba0  1  0.56931200  0.75000000  0.31931200  1
  Ba  Ba1  1  0.93068800  0.25000000  0.18068800  1
  Ba  Ba2  1  0.43068800  0.25000000  0.68068800  1
  Ba  Ba3  1  0.06931200  0.75000000  0.81931200  1
  Ba  Ba4  1  0.21107800  0.67344700  0.23642600  1
  Ba  Ba5  1  0.28892200  0.52534800  0.46236900  1
  Ba  Ba6  1  0.56297900  0.82655300  0.03763100  1
  Ba  Ba7  1  0.93702100  0.97465200  0.26357400  1
  Ba  Ba8  1  0.78892200  0.32655300  0.76357400  1
  Ba  Ba9  1  0.71107800  0.47465200  0.53763100  1
  Ba  Ba10  1  0.43702100  0.17344700  0.96236900  1
  Ba  Ba11  1  0.06297900  0.02534800  0.73642600  1
  B  B0  1  0.16716100  0.41716100  0.75000000  1
  B  B1  1  0.83283900  0.58283900  0.25000000  1
  B  B2  1  0.66716100  0.91716100  0.75000000  1
  B  B3  1  0.33283900  0.08283900  0.25000000  1
  P  P0  1  0.96471900  0.50521800  0.78850900  1
  P  P1  1  0.53528100  0.32379000  0.54049900  1
  P  P2  1  0.28329100  0.99478200  0.95950100  1
  P  P3  1  0.21670900  0.17621000  0.71149100  1
  P  P4  1  0.03528100  0.49478200  0.21149100  1
  P  P5  1  0.46471900  0.67621000  0.45950100  1
  P  P6  1  0.71670900  0.00521800  0.04049900  1
  P  P7  1  0.78329100  0.82379000  0.28850900  1
  P  P8  1  0.32427000  0.75000000  0.07427000  1
  P  P9  1  0.17573000  0.25000000  0.42573000  1
  P  P10  1  0.67573000  0.25000000  0.92573000  1
  P  P11  1  0.82427000  0.75000000  0.57427000  1
  O  O0  1  0.07057900  0.35115000  0.17763300  1
  O  O1  1  0.57057900  0.39294500  0.71942900  1
  O  O2  1  0.17351600  0.85115000  0.78057100  1
  O  O3  1  0.32648400  0.10705500  0.67763300  1
  O  O4  1  0.95232300  0.61594600  0.33366300  1
  O  O5  1  0.54767700  0.88134000  0.66362300  1
  O  O6  1  0.71771700  0.88405400  0.83637700  1
  O  O7  1  0.78228300  0.61866000  0.16633700  1
  O  O8  1  0.04767700  0.38405400  0.66633700  1
  O  O9  1  0.45232300  0.11866000  0.33637700  1
  O  O10  1  0.28228300  0.11594600  0.16362300  1
  O  O11  1  0.21771700  0.38134000  0.83366300  1
  O  O12  1  0.70560300  0.78361500  0.58094100  1
  O  O13  1  0.79439700  0.37533800  0.07801200  1
  O  O14  1  0.36804100  0.73577700  0.52285400  1
  O  O15  1  0.70267400  0.12466200  0.91905900  1
  O  O16  1  0.29439700  0.21638500  0.41905900  1
  O  O17  1  0.20560300  0.62466200  0.92198800  1
  O  O18  1  0.20267400  0.28361500  0.57801200  1
  O  O19  1  0.29732600  0.87533800  0.08094100  1
  O  O20  1  0.67351600  0.89294500  0.32236700  1
  O  O21  1  0.92942100  0.64885000  0.82236700  1
  O  O22  1  0.82648400  0.14885000  0.21942900  1
  O  O23  1  0.42942100  0.60705500  0.28057100  1
  O  O24  1  0.88084400  0.97571400  0.49633600  1
  O  O25  1  0.61915600  0.11549100  0.09487000  1
  O  O26  1  0.52062100  0.52428600  0.40513000  1
  O  O27  1  0.97937900  0.38450900  0.00366400  1
  O  O28  1  0.11915600  0.02428600  0.50366400  1
  O  O29  1  0.38084400  0.88450900  0.90513000  1
  O  O30  1  0.47937900  0.47571400  0.59487000  1
  O  O31  1  0.02062100  0.61549100  0.99633600  1
  O  O32  1  0.91221500  0.92886500  0.78469200  1
  O  O33  1  0.58778500  0.37247700  0.01665000  1
  O  O34  1  0.85582700  0.57113500  0.48335000  1
  O  O35  1  0.64417300  0.12752300  0.71530800  1
  O  O36  1  0.08778500  0.07113500  0.21530800  1
  O  O37  1  0.41221500  0.62752300  0.98335000  1
  O  O38  1  0.14417300  0.42886500  0.51665000  1
  O  O39  1  0.35582700  0.87247700  0.28469200  1
  O  O40  1  0.28707800  0.15481300  0.02285400  1
  O  O41  1  0.21292200  0.23577700  0.86773600  1
  O  O42  1  0.86804100  0.34518700  0.63226400  1
  O  O43  1  0.63195900  0.26422300  0.47714600  1
  O  O44  1  0.71292200  0.84518700  0.97714600  1
  O  O45  1  0.78707800  0.76422300  0.13226400  1
  O  O46  1  0.13195900  0.65481300  0.36773600  1
  O  O47  1  0.79732600  0.71638500  0.42198800  1
loop_
_geom_bond_atom_site_label_1
_geom_bond_atom_site_label_2
_geom_bond_distance
_geom_bond_site_symmetry_2
Ba0 O35 2.679661 1_565
Ba0 O33 2.679661 1_555
Ba0 O20 2.777006 1_555
Ba0 O23 2.777018 1_555
Ba0 O12 2.891160 1_555
Ba0 O47 2.891160 1_555
Ba0 O37 2.962981 1_554
Ba0 O39 2.962981 1_555
Ba1 O32 2.679661 1_544
Ba1 O34 2.679661 1_555
Ba1 O22 2.777018 1_555
Ba1 O0 2.777029 1_655
Ba1 O15 2.891160 1_554
Ba1 O13 2.891160 1_555
Ba1 O38 2.962981 1_655
Ba1 O36 2.962981 1_655
Ba2 O37 2.679661 1_555
Ba2 O39 2.679661 1_545
Ba2 O3 2.777006 1_555
Ba2 O1 2.777018 1_555
Ba2 O18 2.891160 1_555
Ba2 O16 2.891160 1_555
Ba2 O33 2.962981 1_556
Ba2 O35 2.962981 1_555
Ba3 O38 2.679661 1_555
Ba3 O36 2.679661 1_566
Ba3 O2 2.777018 1_555
Ba3 O21 2.777029 1_455
Ba3 O19 2.891160 1_556
Ba3 O17 2.891160 1_555
Ba3 O32 2.962981 1_455
Ba3 O34 2.962981 1_455
Ba4 O31 2.726570 1_554
Ba4 O46 2.729748 1_555
Ba4 O23 2.811501 1_555
Ba4 O28 2.854381 1_565
Ba4 O14 2.943252 1_555
Ba4 O11 2.948909 1_554
Ba4 O41 3.048460 1_554
Ba4 O3 3.121453 1_565
Ba4 O39 3.363035 1_555
Ba5 O30 2.726577 1_555
Ba5 O14 2.729748 1_555
Ba5 O0 2.811504 1_555
Ba5 O29 2.854381 1_555
Ba5 O46 2.943252 1_555
Ba5 O10 2.948909 1_555
Ba5 O40 3.048467 1_555
Ba5 O2 3.121454 1_555
Ba5 O38 3.363035 1_555
Ba6 O29 2.726577 1_554
Ba6 O44 2.729735 1_554
Ba6 O20 2.811514 1_555
Ba6 O30 2.854381 1_554
Ba6 O45 2.943263 1_555
Ba6 O9 2.948909 1_565
Ba6 O43 3.048462 1_565
Ba6 O1 3.121454 1_554
Ba6 O37 3.363035 1_554
Ba7 O28 2.726569 1_665
Ba7 O45 2.729737 1_555
Ba7 O22 2.811501 1_565
Ba7 O31 2.854382 1_654
Ba7 O44 2.943261 1_554
Ba7 O8 2.948909 1_665
Ba7 O42 3.048462 1_565
Ba7 O21 3.121445 1_554
Ba7 O36 3.363035 1_665
Ba8 O27 2.726570 1_556
Ba8 O42 2.729748 1_555
Ba8 O1 2.811501 1_555
Ba8 O24 2.854381 1_545
Ba8 O43 2.943252 1_555
Ba8 O7 2.948909 1_556
Ba8 O45 3.048460 1_556
Ba8 O20 3.121453 1_545
Ba8 O35 3.363035 1_555
Ba9 O26 2.726577 1_555
Ba9 O43 2.729748 1_555
Ba9 O21 2.811504 1_555
Ba9 O25 2.854381 1_555
Ba9 O42 2.943252 1_555
Ba9 O6 2.948909 1_555
Ba9 O44 3.048467 1_555
Ba9 O22 3.121454 1_555
Ba9 O34 3.363035 1_555
Ba10 O25 2.726577 1_556
Ba10 O40 2.729735 1_556
Ba10 O3 2.811514 1_555
Ba10 O26 2.854381 1_556
Ba10 O41 2.943263 1_555
Ba10 O5 2.948909 1_545
Ba10 O14 3.048462 1_545
Ba10 O23 3.121454 1_556
Ba10 O33 3.363035 1_556
Ba11 O24 2.726569 1_445
Ba11 O41 2.729737 1_555
Ba11 O2 2.811501 1_545
Ba11 O27 2.854382 1_456
Ba11 O40 2.943261 1_556
Ba11 O4 2.948909 1_445
Ba11 O46 3.048462 1_545
Ba11 O0 3.121445 1_556
Ba11 O32 3.363035 1_445
B0 O11 1.457126 1_555
B0 O8 1.457126 1_555
B0 O17 1.485083 1_555
B0 O18 1.485083 1_555
B1 O4 1.457126 1_555
B1 O7 1.457126 1_555
B1 O13 1.485083 1_555
B1 O47 1.485083 1_555
B2 O6 1.457126 1_555
B2 O5 1.457126 1_555
B2 O15 1.485083 1_565
B2 O12 1.485083 1_555
B3 O9 1.457126 1_555
B3 O10 1.457126 1_555
B3 O16 1.485083 1_555
B3 O19 1.485083 1_545
O0 P4 1.548731 1_555
O1 P1 1.548740 1_555
O2 P2 1.548740 1_555
O3 P3 1.548743 1_555
O4 P4 1.622289 1_655
O5 P5 1.622289 1_555
O6 P6 1.622289 1_566
O7 P7 1.622289 1_555
O8 P0 1.622289 1_455
O9 P1 1.622289 1_555
O10 P2 1.622289 1_544
O11 P3 1.622289 1_555
O12 P11 1.585712 1_555
O13 P10 1.585712 1_554
O14 P5 1.538683 1_555
O15 P10 1.585712 1_555
O16 P9 1.585712 1_555
O17 P8 1.585712 1_556
O18 P9 1.585712 1_555
O19 P8 1.585712 1_555
O20 P7 1.548743 1_555
O21 P0 1.548731 1_555
O22 P6 1.548740 1_555
O23 P5 1.548740 1_555
O24 P7 1.531602 1_555
O25 P6 1.531598 1_555
O26 P5 1.531598 1_555
O27 P4 1.531609 1_655
O28 P3 1.531602 1_555
O29 P2 1.531598 1_555
O30 P1 1.531598 1_555
O31 P0 1.531609 1_455
O32 P11 1.526571 1_555
O33 P10 1.526571 1_554
O34 P11 1.526571 1_555
O35 P10 1.526571 1_555
O36 P9 1.526571 1_555
O37 P8 1.526571 1_556
O38 P9 1.526571 1_555
O39 P8 1.526571 1_555
O40 P2 1.538687 1_544
O41 P3 1.538691 1_555
O42 P0 1.538683 1_555
O43 P1 1.538683 1_555
O44 P6 1.538687 1_566
O45 P7 1.538691 1_555
O46 P4 1.538683 1_555
O47 P11 1.585712 1_555
