# generated using pymatgen
data_K3Gd3(PS4)4
_symmetry_space_group_name_H-M   'P 1'
_cell_length_a   10.03223006
_cell_length_b   10.03222982
_cell_length_c   14.74725913
_cell_angle_alpha   89.22925574
_cell_angle_beta   89.22925576
_cell_angle_gamma   72.01229974
_symmetry_Int_Tables_number   1
_chemical_formula_structural   K3Gd3(PS4)4
_chemical_formula_sum   'K6 Gd6 P8 S32'
_cell_volume   1411.50630799
_cell_formula_units_Z   2
loop_
 _symmetry_equiv_pos_site_id
 _symmetry_equiv_pos_as_xyz
  1  'x, y, z'
loop_
 _atom_site_type_symbol
 _atom_site_label
 _atom_site_symmetry_multiplicity
 _atom_site_fract_x
 _atom_site_fract_y
 _atom_site_fract_z
 _atom_site_occupancy
  K  K0  1  0.02814951  0.38751816  0.16307916  1
  K  K1  1  0.61248184  0.97185049  0.33692084  1
  K  K2  1  0.38751816  0.02814951  0.66307916  1
  K  K3  1  0.00000000  0.00000000  0.00000000  1
  K  K4  1  0.97185049  0.61248184  0.83692084  1
  K  K5  1  0.00000000  0.00000000  0.50000000  1
  Gd  Gd0  1  0.25358987  0.48555554  0.51180467  1
  Gd  Gd1  1  0.74641013  0.51444446  0.48819533  1
  Gd  Gd2  1  0.48555554  0.25358987  0.01180467  1
  Gd  Gd3  1  0.24922104  0.75077896  0.25000000  1
  Gd  Gd4  1  0.75077896  0.24922104  0.75000000  1
  Gd  Gd5  1  0.51444446  0.74641013  0.98819533  1
  P  P0  1  0.23731716  0.60136968  0.02336474  1
  P  P1  1  0.76268284  0.39863032  0.97663526  1
  P  P2  1  0.39863032  0.76268284  0.47663526  1
  P  P3  1  0.96132427  0.66823156  0.36142088  1
  P  P4  1  0.66823156  0.96132427  0.86142088  1
  P  P5  1  0.60136968  0.23731716  0.52336474  1
  P  P6  1  0.03867573  0.33176844  0.63857912  1
  P  P7  1  0.33176844  0.03867573  0.13857912  1
  S  S0  1  0.27017501  0.74050706  0.58128322  1
  S  S1  1  0.32155117  0.05272541  0.99964031  1
  S  S2  1  0.84344872  0.47214424  0.67111733  1
  S  S3  1  0.05272541  0.32155117  0.49964031  1
  S  S4  1  0.72982499  0.25949294  0.41871678  1
  S  S5  1  0.14382573  0.03912011  0.19455773  1
  S  S6  1  0.52785576  0.15655128  0.82888267  1
  S  S7  1  0.29693860  0.92398753  0.39263424  1
  S  S8  1  0.96087989  0.85617427  0.30544227  1
  S  S9  1  0.15655128  0.52785576  0.32888267  1
  S  S10  1  0.40184071  0.19447442  0.18702030  1
  S  S11  1  0.41577984  0.54542159  0.10416803  1
  S  S12  1  0.45457841  0.58422016  0.39583197  1
  S  S13  1  0.85617427  0.96087989  0.80544227  1
  S  S14  1  0.25949295  0.72982499  0.91871678  1
  S  S15  1  0.70306140  0.07601247  0.60736576  1
  S  S16  1  0.94727459  0.67844883  0.50035969  1
  S  S17  1  0.67844883  0.94727459  0.00035969  1
  S  S18  1  0.92398753  0.29693860  0.89263424  1
  S  S19  1  0.80552558  0.59815929  0.31297970  1
  S  S20  1  0.21189065  0.42070456  0.97429832  1
  S  S21  1  0.57929544  0.78810935  0.52570168  1
  S  S22  1  0.07601247  0.70306140  0.10736576  1
  S  S23  1  0.42070456  0.21189065  0.47429832  1
  S  S24  1  0.03912011  0.14382573  0.69455773  1
  S  S25  1  0.59815929  0.80552558  0.81297970  1
  S  S26  1  0.58422016  0.45457841  0.89583197  1
  S  S27  1  0.54542159  0.41577984  0.60416803  1
  S  S28  1  0.47214424  0.84344872  0.17111733  1
  S  S29  1  0.74050705  0.27017501  0.08128322  1
  S  S30  1  0.78810935  0.57929544  0.02570168  1
  S  S31  1  0.19447442  0.40184071  0.68702030  1
loop_
_geom_bond_atom_site_label_1
_geom_bond_atom_site_label_2
_geom_bond_distance
_geom_bond_site_symmetry_2
K0 S30 3.281769 1_455
K0 S9 3.304201 1_555
K0 S5 3.353265 1_555
K0 S19 3.379124 1_455
K0 S20 3.387539 1_554
K0 S22 3.432912 1_555
K0 S29 3.660344 1_455
K0 S10 3.669189 1_555
K1 S23 3.281769 1_565
K1 S28 3.304201 1_555
K1 S8 3.353265 1_555
K1 S10 3.379124 1_565
K1 S21 3.387539 1_555
K1 S7 3.432912 1_555
K1 S4 3.660344 1_565
K1 S19 3.669189 1_555
K2 S21 3.281769 1_545
K2 S6 3.304201 1_555
K2 S24 3.353265 1_555
K2 S25 3.379124 1_545
K2 S23 3.387539 1_555
K2 S15 3.432912 1_555
K2 S0 3.660344 1_545
K2 S31 3.669189 1_555
K3 S18 3.235003 1_454
K3 S22 3.235003 1_545
K3 S13 3.310537 1_444
K3 S5 3.310537 1_555
K3 S29 3.347540 1_455
K3 S14 3.347540 1_544
K3 S17 3.426286 1_445
K3 S1 3.426286 1_554
K4 S20 3.281769 1_655
K4 S2 3.304201 1_555
K4 S13 3.353265 1_555
K4 S31 3.379124 1_655
K4 S30 3.387539 1_556
K4 S18 3.432912 1_555
K4 S14 3.660344 1_655
K4 S25 3.669189 1_555
K5 S7 3.235003 1_545
K5 S15 3.235003 1_455
K5 S8 3.310537 1_445
K5 S24 3.310537 1_555
K5 S0 3.347540 1_545
K5 S4 3.347540 1_455
K5 S3 3.426286 1_555
K5 S16 3.426286 1_445
Gd0 S23 2.797741 1_555
Gd0 S31 2.818134 1_555
Gd0 S0 2.820896 1_555
Gd0 S9 2.861739 1_555
Gd0 S3 2.977485 1_555
Gd0 S12 3.010797 1_555
Gd0 S16 3.090157 1_455
Gd0 S27 3.119738 1_555
Gd1 S21 2.797741 1_555
Gd1 S19 2.818134 1_555
Gd1 S4 2.820896 1_555
Gd1 S2 2.861739 1_555
Gd1 S16 2.977485 1_555
Gd1 S27 3.010797 1_555
Gd1 S3 3.090157 1_655
Gd1 S12 3.119738 1_555
Gd2 S20 2.797741 1_554
Gd2 S10 2.818134 1_555
Gd2 S29 2.820896 1_555
Gd2 S6 2.861738 1_554
Gd2 S1 2.977485 1_554
Gd2 S26 3.010797 1_554
Gd2 S17 3.090157 1_545
Gd2 S11 3.119737 1_555
Gd3 S5 2.867890 1_565
Gd3 S8 2.867890 1_455
Gd3 S7 2.883125 1_555
Gd3 S22 2.883126 1_555
Gd3 S9 2.899000 1_555
Gd3 S28 2.899000 1_555
Gd3 S11 3.091603 1_555
Gd3 S12 3.091603 1_555
Gd4 S13 2.867890 1_545
Gd4 S24 2.867890 1_655
Gd4 S15 2.883125 1_555
Gd4 S18 2.883126 1_555
Gd4 S2 2.899000 1_555
Gd4 S6 2.899000 1_555
Gd4 S26 3.091603 1_555
Gd4 S27 3.091603 1_555
Gd5 S30 2.797741 1_556
Gd5 S25 2.818134 1_555
Gd5 S14 2.820896 1_555
Gd5 S28 2.861738 1_556
Gd5 S17 2.977485 1_556
Gd5 S11 3.010797 1_556
Gd5 S1 3.090157 1_565
Gd5 S26 3.119737 1_555
P0 S22 2.038264 1_555
P0 S20 2.049273 1_554
P0 S14 2.050912 1_554
P0 S11 2.087873 1_555
P1 S18 2.038264 1_555
P1 S30 2.049273 1_556
P1 S29 2.050912 1_556
P1 S26 2.087873 1_555
P2 S7 2.038264 1_555
P2 S21 2.049273 1_555
P2 S0 2.050912 1_555
P2 S12 2.087873 1_555
P3 S19 2.041980 1_555
P3 S8 2.046852 1_555
P3 S16 2.053678 1_555
P3 S9 2.082987 1_655
P4 S25 2.041980 1_555
P4 S13 2.046852 1_555
P4 S17 2.053678 1_556
P4 S6 2.082987 1_565
P5 S15 2.038264 1_555
P5 S23 2.049273 1_555
P5 S4 2.050912 1_555
P5 S27 2.087873 1_555
P6 S31 2.041980 1_555
P6 S24 2.046852 1_555
P6 S3 2.053678 1_555
P6 S2 2.082987 1_455
P7 S10 2.041980 1_555
P7 S5 2.046852 1_555
P7 S1 2.053678 1_554
P7 S28 2.082987 1_545
