# generated using pymatgen
data_Zr3Sc4O12
_symmetry_space_group_name_H-M   'P 1'
_cell_length_a   6.21680000
_cell_length_b   6.24143179
_cell_length_c   12.45693618
_cell_angle_alpha   99.53755225
_cell_angle_beta   99.41429858
_cell_angle_gamma   99.54795242
_symmetry_Int_Tables_number   1
_chemical_formula_structural   Zr3Sc4O12
_chemical_formula_sum   'Zr6 Sc8 O24'
_cell_volume   460.90589222
_cell_formula_units_Z   2
loop_
 _symmetry_equiv_pos_site_id
 _symmetry_equiv_pos_as_xyz
  1  'x, y, z'
loop_
 _atom_site_type_symbol
 _atom_site_label
 _atom_site_symmetry_multiplicity
 _atom_site_fract_x
 _atom_site_fract_y
 _atom_site_fract_z
 _atom_site_occupancy
  Zr  Zr0  1  0.13947600  0.60736400  0.65787500  1
  Zr  Zr1  1  0.99841400  0.99403100  0.99961200  1
  Zr  Zr2  1  0.68590300  0.86858100  0.69617200  1
  Zr  Zr3  1  0.31453300  0.13751500  0.30602100  1
  Zr  Zr4  1  0.61009000  0.31656300  0.06899700  1
  Zr  Zr5  1  0.99691700  0.99564400  0.49650000  1
  Sc  Sc0  1  0.14025100  0.60679000  0.15945500  1
  Sc  Sc1  1  0.39278300  0.68205600  0.93188900  1
  Sc  Sc2  1  0.32040800  0.14677300  0.80468000  1
  Sc  Sc3  1  0.39338700  0.67212500  0.42743200  1
  Sc  Sc4  1  0.60802300  0.32006900  0.57004800  1
  Sc  Sc5  1  0.67840800  0.85600900  0.19649500  1
  Sc  Sc6  1  0.86188000  0.39565100  0.84219400  1
  Sc  Sc7  1  0.86199400  0.39546200  0.34013900  1
  O  O0  1  0.06032900  0.67988000  0.94982800  1
  O  O1  1  0.08674200  0.93579500  0.66218700  1
  O  O2  1  0.06416800  0.67521200  0.45611800  1
  O  O3  1  0.17964700  0.42137700  0.78538200  1
  O  O4  1  0.10060900  0.93989500  0.16025600  1
  O  O5  1  0.32113700  0.09970000  0.96985000  1
  O  O6  1  0.42520700  0.82238300  0.78917500  1
  O  O7  1  0.17931900  0.41638600  0.28686000  1
  O  O8  1  0.42137300  0.57778000  0.59059400  1
  O  O9  1  0.32100700  0.10133100  0.47117200  1
  O  O10  1  0.42254800  0.82031800  0.29243500  1
  O  O11  1  0.41972500  0.57303100  0.08956100  1
  O  O12  1  0.58120400  0.42396000  0.91017100  1
  O  O13  1  0.57621900  0.18084100  0.70827700  1
  O  O14  1  0.67601200  0.90103000  0.53017100  1
  O  O15  1  0.58146700  0.41812000  0.40957600  1
  O  O16  1  0.81936000  0.58448100  0.71228600  1
  O  O17  1  0.57146500  0.17751000  0.20993200  1
  O  O18  1  0.67609300  0.91186300  0.03218300  1
  O  O19  1  0.90415000  0.06291100  0.83930700  1
  O  O20  1  0.81942400  0.57911300  0.21091300  1
  O  O21  1  0.94158900  0.31836400  0.55145600  1
  O  O22  1  0.91078800  0.06094900  0.33804900  1
  O  O23  1  0.93794800  0.32314000  0.04675300  1
loop_
_geom_bond_atom_site_label_1
_geom_bond_atom_site_label_2
_geom_bond_distance
_geom_bond_site_symmetry_2
O0 Zr1 2.074321 1_455
O0 Sc6 2.100334 1_455
O0 Sc1 2.112953 1_555
O0 O3 2.673682 1_555
O0 Sc0 2.705442 1_556
O0 O23 2.761096 1_456
O0 O5 2.792612 1_565
O0 O4 2.794329 1_556
O0 O11 2.841363 1_556
O1 Zr0 2.122400 1_555
O1 Zr5 2.158451 1_455
O1 Sc2 2.177659 1_565
O1 Zr2 2.573350 1_455
O1 O6 2.684623 1_555
O1 O19 2.706307 1_465
O1 O16 2.746674 1_455
O1 O14 2.756033 1_455
O1 O2 2.770781 1_555
O2 Zr5 2.107240 1_455
O2 Sc7 2.134863 1_455
O2 Sc3 2.137068 1_555
O2 Zr0 2.597805 1_555
O2 O7 2.704873 1_555
O2 O21 2.749789 1_455
O2 O8 2.770551 1_555
O2 O9 2.825964 1_565
O3 Sc2 2.079992 1_555
O3 Zr0 2.123710 1_555
O3 Sc6 2.195222 1_455
O3 Sc1 2.289822 1_555
O3 O6 2.695675 1_555
O4 Zr1 2.098023 1_454
O4 Zr3 2.123850 1_565
O4 Sc0 2.132417 1_555
O4 Sc5 2.716104 1_455
O5 Zr1 2.117328 1_445
O5 Zr4 2.120838 1_556
O5 Sc2 2.125421 1_555
O5 Sc1 2.694895 1_545
O5 O6 2.834930 1_545
O6 Sc1 2.131404 1_555
O6 Zr2 2.149864 1_555
O6 Sc2 2.215896 1_565
O6 Zr0 2.272190 1_555
O6 O8 2.677252 1_555
O7 Zr3 2.085791 1_555
O7 Sc0 2.141203 1_555
O7 Sc7 2.172753 1_455
O7 Sc3 2.234250 1_555
O8 Zr0 2.084311 1_555
O8 Sc4 2.139882 1_555
O8 Sc3 2.196129 1_555
O8 Zr2 2.289024 1_555
O9 Zr3 2.101167 1_555
O9 Zr5 2.104786 1_445
O9 Sc4 2.116691 1_555
O9 Sc3 2.769845 1_545
O10 Sc3 2.067818 1_555
O10 Sc5 2.144904 1_555
O10 Zr3 2.183164 1_565
O10 Sc0 2.267509 1_555
O10 O4 2.664307 1_555
O10 O17 2.696172 1_565
O10 O7 2.700046 1_555
O10 O11 2.730031 1_555
O10 O9 2.822251 1_565
O11 Sc0 2.092048 1_555
O11 Zr4 2.149484 1_555
O11 Sc1 2.172998 1_554
O11 Sc5 2.248852 1_555
O11 O20 2.679910 1_555
O11 O12 2.687352 1_554
O11 O18 2.697929 1_555
O12 Sc6 2.080634 1_555
O12 Sc1 2.150701 1_555
O12 Zr4 2.181549 1_556
O12 Sc2 2.228820 1_555
O12 O5 2.658742 1_555
O12 O13 2.706079 1_555
O12 O3 2.712476 1_555
O12 O23 2.791542 1_556
O13 Sc4 2.075918 1_555
O13 Sc2 2.147951 1_555
O13 Zr2 2.159452 1_545
O13 Sc6 2.287790 1_555
O13 O19 2.677595 1_555
O13 O16 2.702672 1_555
O13 O14 2.807669 1_545
O14 Zr2 2.102898 1_555
O14 Zr5 2.114162 1_555
O14 Sc3 2.142869 1_555
O14 O8 2.641311 1_555
O14 Sc4 2.696410 1_565
O14 O9 2.768222 1_565
O14 O21 2.789666 1_565
O15 Sc7 2.084328 1_555
O15 Sc3 2.124421 1_555
O15 Sc4 2.174554 1_555
O15 Zr3 2.252121 1_555
O15 O9 2.639532 1_555
O15 O17 2.669237 1_555
O15 O7 2.706025 1_555
O15 O21 2.838347 1_555
O16 Zr2 2.103422 1_555
O16 Sc6 2.161734 1_555
O16 Zr0 2.195303 1_655
O16 Sc4 2.266994 1_555
O16 O8 2.671904 1_555
O16 O21 2.676560 1_555
O16 O3 2.697904 1_655
O17 Zr4 2.113479 1_555
O17 Zr3 2.153747 1_555
O17 Sc5 2.205508 1_545
O17 Sc7 2.288859 1_555
O17 O22 2.705331 1_555
O17 O20 2.713151 1_555
O17 O18 2.772576 1_545
O18 Zr1 2.106390 1_554
O18 Sc5 2.130660 1_555
O18 Sc1 2.137406 1_554
O18 Zr4 2.603923 1_565
O18 O5 2.728778 1_564
O18 O23 2.763139 1_565
O18 O4 2.813860 1_655
O19 Zr2 2.106456 1_545
O19 Zr1 2.121586 1_545
O19 Sc6 2.131368 1_555
O19 Sc2 2.673450 1_655
O19 O23 2.770962 1_556
O19 O5 2.777947 1_655
O19 O3 2.827279 1_655
O20 Sc5 2.083639 1_555
O20 Sc7 2.132599 1_555
O20 Sc0 2.181624 1_655
O20 Zr4 2.254781 1_555
O20 O23 2.660437 1_555
O20 O7 2.704133 1_655
O20 O4 2.837330 1_655
O21 Zr0 2.112420 1_655
O21 Zr5 2.119912 1_545
O21 Sc4 2.125479 1_555
O21 Sc7 2.734662 1_555
O21 O22 2.828613 1_555
O22 Zr5 2.083756 1_545
O22 Sc5 2.153757 1_545
O22 Sc7 2.155562 1_555
O22 Zr3 2.584671 1_655
O22 O4 2.732190 1_645
O22 O9 2.753544 1_655
O22 O7 2.775499 1_655
O23 Zr4 2.096095 1_555
O23 Sc0 2.132383 1_655
O23 Zr1 2.152710 1_544
O23 Sc6 2.642086 1_554
