# generated using pymatgen
data_Ca2MgSi2O7
_symmetry_space_group_name_H-M   'P 1'
_cell_length_a   7.90789600
_cell_length_b   7.90789600
_cell_length_c   5.05302400
_cell_angle_alpha   90.00000000
_cell_angle_beta   90.00000000
_cell_angle_gamma   90.00000000
_symmetry_Int_Tables_number   1
_chemical_formula_structural   Ca2MgSi2O7
_chemical_formula_sum   'Ca4 Mg2 Si4 O14'
_cell_volume   315.98994198
_cell_formula_units_Z   2
loop_
 _symmetry_equiv_pos_site_id
 _symmetry_equiv_pos_as_xyz
  1  'x, y, z'
loop_
 _atom_site_type_symbol
 _atom_site_label
 _atom_site_symmetry_multiplicity
 _atom_site_fract_x
 _atom_site_fract_y
 _atom_site_fract_z
 _atom_site_occupancy
  Ca  Ca0  1  0.16994600  0.33005400  0.49728100  1
  Ca  Ca1  1  0.33005400  0.83005400  0.50271900  1
  Ca  Ca2  1  0.66994600  0.16994600  0.50271900  1
  Ca  Ca3  1  0.83005400  0.66994600  0.49728100  1
  Mg  Mg0  1  0.00000000  0.00000000  0.00000000  1
  Mg  Mg1  1  0.50000000  0.50000000  0.00000000  1
  Si  Si0  1  0.64086900  0.85913100  0.06927700  1
  Si  Si1  1  0.14086900  0.64086900  0.93072300  1
  Si  Si2  1  0.35913100  0.14086900  0.06927700  1
  Si  Si3  1  0.85913100  0.35913100  0.93072300  1
  O  O0  1  0.68484400  0.41799100  0.78090300  1
  O  O1  1  0.31515600  0.58200900  0.78090300  1
  O  O2  1  0.41799100  0.31515600  0.21909700  1
  O  O3  1  0.58200900  0.68484400  0.21909700  1
  O  O4  1  0.91799100  0.18484400  0.78090300  1
  O  O5  1  0.81515600  0.91799100  0.21909700  1
  O  O6  1  0.18484400  0.08200900  0.21909700  1
  O  O7  1  0.08200900  0.81515600  0.78090300  1
  O  O8  1  0.85725700  0.35725700  0.25053700  1
  O  O9  1  0.64274300  0.85725700  0.74946300  1
  O  O10  1  0.00000000  0.50000000  0.81350800  1
  O  O11  1  0.50000000  0.00000000  0.18649200  1
  O  O12  1  0.14274300  0.64274300  0.25053700  1
  O  O13  1  0.35725700  0.14274300  0.74946300  1
loop_
_geom_bond_atom_site_label_1
_geom_bond_atom_site_label_2
_geom_bond_distance
_geom_bond_site_symmetry_2
Ca0 O6 2.416056 1_555
Ca0 O2 2.416056 1_555
Ca0 O13 2.451920 1_555
Ca0 O10 2.483044 1_555
Ca0 O4 2.709670 1_455
Ca0 O1 2.709670 1_555
Ca0 O8 2.777607 1_455
Ca0 O12 2.777607 1_555
Ca1 O7 2.416056 1_555
Ca1 O1 2.416056 1_555
Ca1 O12 2.451920 1_555
Ca1 O11 2.483044 1_565
Ca1 O6 2.709670 1_565
Ca1 O3 2.709670 1_555
Ca1 O13 2.777607 1_565
Ca1 O9 2.777607 1_555
Ca2 O4 2.416056 1_555
Ca2 O0 2.416056 1_555
Ca2 O8 2.451920 1_555
Ca2 O11 2.483044 1_555
Ca2 O5 2.709670 1_545
Ca2 O2 2.709670 1_555
Ca2 O13 2.777607 1_555
Ca2 O9 2.777607 1_545
Ca3 O3 2.416056 1_555
Ca3 O5 2.416056 1_555
Ca3 O9 2.451920 1_555
Ca3 O10 2.483044 1_655
Ca3 O0 2.709670 1_555
Ca3 O7 2.709670 1_655
Ca3 O12 2.777607 1_655
Ca3 O8 2.777607 1_555
Mg0 O4 1.944967 1_454
Mg0 O6 1.944967 1_555
Mg0 O7 1.944967 1_544
Mg0 O5 1.944967 1_445
Mg1 O1 1.944967 1_554
Mg1 O0 1.944967 1_554
Mg1 O2 1.944967 1_555
Mg1 O3 1.944967 1_555
O0 Si3 1.639915 1_555
O1 Si1 1.639915 1_555
O2 Si2 1.639915 1_555
O3 Si0 1.639915 1_555
O4 Si3 1.639915 1_555
O5 Si0 1.639915 1_555
O6 Si2 1.639915 1_555
O7 Si1 1.639915 1_555
O8 Si3 1.616164 1_554
O9 Si0 1.616164 1_556
O10 Si1 1.683062 1_555
O10 Si3 1.683062 1_455
O11 Si2 1.683062 1_555
O11 Si0 1.683062 1_545
O12 Si1 1.616164 1_554
O13 Si2 1.616164 1_556
