# generated using pymatgen
data_Ag13Bi15I64
_symmetry_space_group_name_H-M   'P 1'
_cell_length_a   9.03418954
_cell_length_b   9.27442917
_cell_length_c   74.72163044
_cell_angle_alpha   58.00813567
_cell_angle_beta   58.15077585
_cell_angle_gamma   58.11308631
_symmetry_Int_Tables_number   1
_chemical_formula_structural   Ag13Bi15I64
_chemical_formula_sum   'Ag13 Bi15 I64'
_cell_volume   4233.16916436
_cell_formula_units_Z   1
loop_
 _symmetry_equiv_pos_site_id
 _symmetry_equiv_pos_as_xyz
  1  'x, y, z'
loop_
 _atom_site_type_symbol
 _atom_site_label
 _atom_site_symmetry_multiplicity
 _atom_site_fract_x
 _atom_site_fract_y
 _atom_site_fract_z
 _atom_site_occupancy
  Ag  Ag0  1  0.50659457  0.00143864  0.99865900  1
  Ag  Ag1  1  0.48622473  0.99370817  0.12834578  1
  Ag  Ag2  1  0.45704177  0.99326679  0.25523282  1
  Ag  Ag3  1  0.48946421  0.00229798  0.37693840  1
  Ag  Ag4  1  0.00410726  0.48284559  0.37792180  1
  Ag  Ag5  1  0.00430726  0.51353184  0.62251955  1
  Ag  Ag6  1  0.49987092  0.99987937  0.49999896  1
  Ag  Ag7  1  0.99898846  0.50088709  0.49992546  1
  Ag  Ag8  1  0.51476509  0.00238314  0.62247037  1
  Ag  Ag9  1  0.00641250  0.52479966  0.87036725  1
  Ag  Ag10  1  0.52550282  0.00285145  0.74564864  1
  Ag  Ag11  1  0.00695110  0.52104199  0.74587066  1
  Ag  Ag12  1  0.52868034  0.99996864  0.87046580  1
  Bi  Bi0  1  0.99486167  0.00472837  0.99941268  1
  Bi  Bi1  1  0.99364063  0.50948903  0.99873835  1
  Bi  Bi2  1  0.00407561  0.49008008  0.12637299  1
  Bi  Bi3  1  0.99335681  0.00645821  0.06242311  1
  Bi  Bi4  1  -0.00046885  0.96012942  0.31597876  1
  Bi  Bi5  1  0.00751797  0.99109479  0.12658156  1
  Bi  Bi6  1  0.99395190  0.47205036  0.25371683  1
  Bi  Bi7  1  0.98582695  0.98989340  0.19541787  1
  Bi  Bi8  1  0.99416118  0.00019515  0.43798053  1
  Bi  Bi9  1  0.00463145  0.00349539  0.56245071  1
  Bi  Bi10  1  0.00741139  0.01007178  0.68214855  1
  Bi  Bi11  1  0.00010544  0.99725463  0.87339102  1
  Bi  Bi12  1  0.01220638  0.01456788  0.93305710  1
  Bi  Bi13  1  0.00081995  0.99781162  0.74780173  1
  Bi  Bi14  1  0.00272433  0.00500592  0.80921249  1
  I  I0  1  0.24956385  0.24116135  0.02957334  1
  I  I1  1  0.24206112  0.25104123  0.09543332  1
  I  I2  1  0.23704875  0.77625729  0.03081444  1
  I  I3  1  0.72859592  0.28739858  0.03089032  1
  I  I4  1  0.25870382  0.24804645  0.15393283  1
  I  I5  1  0.25526146  0.74052713  0.09625315  1
  I  I6  1  0.75559532  0.22421537  0.09483059  1
  I  I7  1  0.75834991  0.75665786  0.02933026  1
  I  I8  1  0.27782156  0.24670561  0.22158547  1
  I  I9  1  0.25687975  0.76071400  0.15442772  1
  I  I10  1  0.75205977  0.25408767  0.15440003  1
  I  I11  1  0.75377318  0.76085529  0.09480969  1
  I  I12  1  0.23637157  0.26547793  0.28172320  1
  I  I13  1  0.25798213  0.75698077  0.21779166  1
  I  I14  1  0.75505818  0.23826965  0.21880378  1
  I  I15  1  0.75868986  0.74580055  0.15493572  1
  I  I16  1  0.24490899  0.24734622  0.35282662  1
  I  I17  1  0.23751846  0.76192629  0.28263825  1
  I  I18  1  0.75149289  0.25256558  0.28152360  1
  I  I19  1  0.76687552  0.75081194  0.21749750  1
  I  I20  1  0.23642418  0.24604493  0.41115357  1
  I  I21  1  0.22782457  0.72464074  0.34601171  1
  I  I22  1  0.74273211  0.76392934  0.27552765  1
  I  I23  1  0.72506155  0.20519940  0.34725692  1
  I  I24  1  0.24968858  0.25495933  0.47647154  1
  I  I25  1  0.26922030  0.78337446  0.40450426  1
  I  I26  1  0.76680832  0.26518845  0.40609443  1
  I  I27  1  0.75736684  0.74887873  0.34010542  1
  I  I28  1  0.24500831  0.23861488  0.53563004  1
  I  I29  1  0.22002335  0.72202193  0.47141287  1
  I  I30  1  0.72974823  0.21297202  0.47127164  1
  I  I31  1  0.74345038  0.74215284  0.39933146  1
  I  I32  1  0.25661055  0.26015976  0.60035268  1
  I  I33  1  0.27150770  0.78690965  0.52850640  1
  I  I34  1  0.77944939  0.27881002  0.52850085  1
  I  I35  1  0.75672690  0.76040467  0.46425542  1
  I  I36  1  0.24333674  0.23902330  0.65774049  1
  I  I37  1  0.23984217  0.74023906  0.59315481  1
  I  I38  1  0.24227925  0.24223085  0.72370130  1
  I  I39  1  0.74501750  0.23039012  0.59350100  1
  I  I40  1  0.74899599  0.74491736  0.52368760  1
  I  I41  1  0.25905947  0.77318513  0.65512299  1
  I  I42  1  0.76282497  0.26329176  0.65543308  1
  I  I43  1  0.75378761  0.75700051  0.59106852  1
  I  I44  1  0.23692764  0.23831126  0.77974886  1
  I  I45  1  0.25519681  0.76019592  0.71984021  1
  I  I46  1  0.24078118  0.24197576  0.84910988  1
  I  I47  1  0.75790497  0.25242138  0.71971667  1
  I  I48  1  0.75888616  0.75225652  0.64682125  1
  I  I49  1  0.23663063  0.75019234  0.78384962  1
  I  I50  1  0.74360535  0.23592069  0.78364831  1
  I  I51  1  0.75455946  0.75393097  0.72039568  1
  I  I52  1  0.23996970  0.24584555  0.90481683  1
  I  I53  1  0.25447393  0.76020717  0.84494623  1
  I  I54  1  0.75764042  0.25056602  0.84456611  1
  I  I55  1  0.75530284  0.75806085  0.77682868  1
  I  I56  1  0.23923440  0.24359568  0.97079161  1
  I  I57  1  0.23760040  0.75394215  0.90755556  1
  I  I58  1  0.74499991  0.23847910  0.90818411  1
  I  I59  1  0.74907368  0.74880695  0.84640587  1
  I  I60  1  0.25880071  0.72500001  0.96720728  1
  I  I61  1  0.75481166  0.23022198  0.96922079  1
  I  I62  1  0.75376928  0.75946039  0.90269915  1
  I  I63  1  0.73869003  0.75799696  0.97078041  1
loop_
_geom_bond_atom_site_label_1
_geom_bond_atom_site_label_2
_geom_bond_distance
_geom_bond_site_symmetry_2
Ag0 I63 3.034115 1_545
Ag0 I61 3.040540 1_555
Ag0 I56 3.136185 1_555
Ag0 I2 3.153640 1_546
Ag0 I0 3.161901 1_556
Ag0 I7 3.179978 1_546
Ag1 I9 2.960883 1_555
Ag1 I4 2.992200 1_565
Ag1 I15 3.103980 1_555
Ag1 I6 3.186804 1_565
Ag1 I1 3.248649 1_565
Ag1 I11 3.257695 1_555
Ag2 I17 2.878170 1_555
Ag2 I22 2.897987 1_555
Ag2 I8 2.912241 1_565
Ag2 I12 3.174768 1_565
Ag2 I14 3.463578 1_565
Ag2 I19 3.546932 1_555
Ag3 I31 2.794884 1_545
Ag3 I23 2.795989 1_555
Ag3 I25 2.799211 1_545
Ag3 I16 2.801758 1_555
Ag3 I20 3.371747 1_555
Ag3 I27 3.573630 1_545
Ag4 I31 2.829466 1_455
Ag4 I16 2.834394 1_555
Ag4 I26 2.899792 1_455
Ag4 I21 2.972504 1_555
Ag4 I20 3.200957 1_555
Ag4 I27 3.534217 1_455
Ag5 I48 2.817791 1_455
Ag5 I32 2.818126 1_555
Ag5 I37 2.945164 1_555
Ag5 I42 3.135740 1_455
Ag5 I43 3.214833 1_455
Ag5 I36 3.340806 1_555
Ag6 I33 2.811420 1_555
Ag6 I24 2.816612 1_565
Ag6 I40 2.817227 1_555
Ag6 I30 2.821841 1_565
Ag6 I28 3.418033 1_565
Ag6 I35 3.427889 1_555
Ag7 I34 2.814509 1_555
Ag7 I29 2.817745 1_655
Ag7 I24 2.827011 1_655
Ag7 I40 2.828645 1_555
Ag7 I35 3.388331 1_555
Ag7 I28 3.412388 1_655
Ag8 I32 2.806550 1_555
Ag8 I48 2.813095 1_545
Ag8 I39 2.920489 1_555
Ag8 I41 3.090634 1_545
Ag8 I43 3.235218 1_545
Ag8 I36 3.376085 1_555
Ag9 I59 2.876721 1_455
Ag9 I46 2.980625 1_555
Ag9 I53 3.111164 1_555
Ag9 I62 3.207223 1_455
Ag9 I52 3.268016 1_555
Ag9 I58 3.499347 1_455
Ag10 I51 2.935996 1_545
Ag10 I38 2.955395 1_555
Ag10 I55 3.068040 1_545
Ag10 I47 3.099776 1_555
Ag10 I44 3.305812 1_555
Ag10 I49 3.458469 1_545
Ag11 I51 2.916985 1_455
Ag11 I38 2.994060 1_555
Ag11 I45 3.132554 1_555
Ag11 I55 3.147976 1_455
Ag11 I44 3.219018 1_555
Ag11 I50 3.502934 1_455
Ag12 I59 2.895183 1_555
Ag12 I46 2.960849 1_565
Ag12 I54 3.084457 1_565
Ag12 I62 3.097714 1_555
Ag12 I52 3.382916 1_565
Ag12 I57 3.427756 1_555
Bi0 I56 3.085382 1_655
Bi0 I61 3.088496 1_555
Bi0 I7 3.091759 1_546
Bi0 I2 3.167728 1_646
Bi0 I3 3.477273 1_556
Bi0 I60 3.497280 1_645
Bi1 I63 3.057642 1_555
Bi1 I60 3.065391 1_655
Bi1 I3 3.105475 1_556
Bi1 I56 3.186047 1_655
Bi1 I7 3.205432 1_556
Bi1 I0 3.211701 1_656
Bi2 I4 3.035991 1_555
Bi2 I10 3.120186 1_455
Bi2 I15 3.147970 1_455
Bi2 I1 3.167236 1_555
Bi2 I5 3.201480 1_555
Bi2 I11 3.214882 1_455
Bi3 I11 3.093475 1_545
Bi3 I6 3.108988 1_555
Bi3 I0 3.128281 1_655
Bi3 I2 3.142118 1_645
Bi3 I3 3.304571 1_555
Bi3 I5 3.407664 1_645
Bi4 I27 2.915190 1_455
Bi4 I21 2.998690 1_555
Bi4 I17 3.038438 1_555
Bi4 I23 3.214822 1_465
Bi4 I18 3.357743 1_465
Bi4 I12 3.477163 1_565
Bi5 I9 3.020029 1_555
Bi5 I10 3.155704 1_465
Bi5 I1 3.156846 1_565
Bi5 I15 3.160207 1_455
Bi5 I5 3.205869 1_555
Bi5 I6 3.247731 1_465
Bi6 I18 2.946972 1_555
Bi6 I12 3.000335 1_655
Bi6 I22 3.068410 1_555
Bi6 I8 3.140896 1_655
Bi6 I19 3.325521 1_555
Bi6 I13 3.502010 1_655
Bi7 I14 2.837772 1_565
Bi7 I13 2.899432 1_655
Bi7 I19 2.977348 1_555
Bi7 I4 3.424232 1_665
Bi7 I10 3.642032 1_565
Bi7 I9 3.657734 1_655
Bi8 I35 3.061108 1_545
Bi8 I26 3.092338 1_555
Bi8 I30 3.120646 1_555
Bi8 I20 3.131521 1_655
Bi8 I25 3.156929 1_645
Bi8 I29 3.170024 1_645
Bi9 I28 3.044099 1_555
Bi9 I37 3.077119 1_545
Bi9 I39 3.086764 1_455
Bi9 I33 3.179485 1_545
Bi9 I43 3.180195 1_445
Bi9 I34 3.191979 1_455
Bi10 I42 2.930533 1_455
Bi10 I41 2.941460 1_545
Bi10 I36 2.992224 1_555
Bi10 I51 3.267791 1_445
Bi10 I45 3.545527 1_545
Bi10 I47 3.559207 1_455
Bi11 I53 3.015068 1_555
Bi11 I54 3.022788 1_465
Bi11 I62 3.088127 1_455
Bi11 I46 3.139706 1_565
Bi11 I57 3.282378 1_555
Bi11 I58 3.386413 1_465
Bi12 I52 2.927825 1_555
Bi12 I58 2.990523 1_455
Bi12 I57 3.034049 1_545
Bi12 I61 3.300163 1_455
Bi12 I60 3.332284 1_545
Bi12 I63 3.386377 1_445
Bi13 I47 2.988436 1_465
Bi13 I45 2.993989 1_555
Bi13 I55 3.096997 1_455
Bi13 I38 3.145305 1_565
Bi13 I49 3.376449 1_555
Bi13 I50 3.424647 1_465
Bi14 I50 2.967032 1_455
Bi14 I44 2.979716 1_555
Bi14 I49 2.980791 1_545
Bi14 I59 3.264180 1_445
Bi14 I54 3.455728 1_455
Bi14 I53 3.462211 1_545
I0 I61 4.410594 1_554
I1 I11 4.445839 1_455
I2 I3 4.359412 1_555
I3 I63 4.295077 1_554
I4 I5 4.309402 1_555
I16 I26 4.040407 1_455
I16 I21 4.104981 1_555
I21 I31 4.072297 1_455
I25 I31 3.915244 1_555
I26 I31 4.077451 1_555
I32 I39 4.035582 1_555
I32 I37 4.119782 1_555
I37 I48 4.067633 1_455
I39 I48 4.095462 1_545
