# generated using pymatgen
data_AlH18(BrO6)3
_symmetry_space_group_name_H-M   'P 1'
_cell_length_a   10.52193500
_cell_length_b   10.99437967
_cell_length_c   12.64212913
_cell_angle_alpha   110.83879044
_cell_angle_beta   107.56859224
_cell_angle_gamma   100.81006272
_symmetry_Int_Tables_number   1
_chemical_formula_structural   AlH18(BrO6)3
_chemical_formula_sum   'Al2 H36 Br6 O36'
_cell_volume   1229.58937178
_cell_formula_units_Z   2
loop_
 _symmetry_equiv_pos_site_id
 _symmetry_equiv_pos_as_xyz
  1  'x, y, z'
loop_
 _atom_site_type_symbol
 _atom_site_label
 _atom_site_symmetry_multiplicity
 _atom_site_fract_x
 _atom_site_fract_y
 _atom_site_fract_z
 _atom_site_occupancy
  Al  Al0  1  0.21233100  0.73403200  0.90790000  1
  Al  Al1  1  0.78766900  0.26596800  0.09210000  1
  H  H0  1  0.80731800  0.10230100  0.52259700  1
  H  H1  1  0.19268200  0.89769900  0.47740300  1
  H  H2  1  0.15554500  0.52868500  0.25725600  1
  H  H3  1  0.84445500  0.47131500  0.74274400  1
  H  H4  1  0.01479900  0.86092100  0.74703400  1
  H  H5  1  0.98520100  0.13907900  0.25296600  1
  H  H6  1  0.59144100  0.69225400  0.28040300  1
  H  H7  1  0.40855900  0.30774600  0.71959700  1
  H  H8  1  0.33997200  0.23135400  0.25157500  1
  H  H9  1  0.66002800  0.76864600  0.74842500  1
  H  H10  1  0.48010900  0.92575900  0.76301700  1
  H  H11  1  0.51989100  0.07424100  0.23698300  1
  H  H12  1  0.41934100  0.13358500  0.89797000  1
  H  H13  1  0.58065900  0.86641500  0.10203000  1
  H  H14  1  0.55370800  0.55150200  0.17259500  1
  H  H15  1  0.44629200  0.44849800  0.82740500  1
  H  H16  1  0.32031600  0.62558300  0.76308900  1
  H  H17  1  0.67968400  0.37441700  0.23691100  1
  H  H18  1  0.23682300  0.49541900  0.92440500  1
  H  H19  1  0.76317700  0.50458100  0.07559500  1
  H  H20  1  0.13454500  0.27985700  0.61257000  1
  H  H21  1  0.86545500  0.72014300  0.38743000  1
  H  H22  1  0.38359300  0.63112000  0.99840300  1
  H  H23  1  0.61640700  0.36888000  0.00159700  1
  H  H24  1  0.60187600  0.72544600  0.75553200  1
  H  H25  1  0.39812400  0.27455400  0.24446800  1
  H  H26  1  0.30557100  0.04321500  0.55482600  1
  H  H27  1  0.69442900  0.95678500  0.44517400  1
  H  H28  1  0.34475300  0.78069800  0.77357000  1
  H  H29  1  0.65524700  0.21930200  0.22643000  1
  H  H30  1  0.73253300  0.21766100  0.70265700  1
  H  H31  1  0.26746700  0.78233900  0.29734300  1
  H  H32  1  0.32961400  0.89932900  0.65967800  1
  H  H33  1  0.67038600  0.10067100  0.34032200  1
  H  H34  1  0.62250800  0.75206300  0.13708700  1
  H  H35  1  0.37749200  0.24793700  0.86291300  1
  Br  Br0  1  0.39277900  0.56733100  0.33248400  1
  Br  Br1  1  0.60722100  0.43266900  0.66751600  1
  Br  Br2  1  0.02776300  0.49613500  0.36879200  1
  Br  Br3  1  0.97223700  0.50386500  0.63120800  1
  Br  Br4  1  0.31895600  0.97949600  0.03037100  1
  Br  Br5  1  0.68104400  0.02050400  0.96962900  1
  O  O0  1  0.62080000  0.12395500  0.27278200  1
  O  O1  1  0.37920000  0.87604500  0.72721800  1
  O  O2  1  0.71870300  0.41042100  0.05917700  1
  O  O3  1  0.28129700  0.58957900  0.94082300  1
  O  O4  1  0.34535400  0.48061200  0.58616800  1
  O  O5  1  0.65464600  0.51938800  0.41383200  1
  O  O6  1  0.83029900  0.23133800  0.70665100  1
  O  O7  1  0.16970100  0.76866200  0.29334900  1
  O  O8  1  0.94567500  0.30719600  0.21500700  1
  O  O9  1  0.05432500  0.69280400  0.78499300  1
  O  O10  1  0.06840100  0.05025400  0.35590000  1
  O  O11  1  0.93159900  0.94974600  0.64410000  1
  O  O12  1  0.21705200  0.50449400  0.21179600  1
  O  O13  1  0.78294800  0.49550600  0.78820400  1
  O  O14  1  0.47943600  0.73113900  0.36113800  1
  O  O15  1  0.52056400  0.26886100  0.63886200  1
  O  O16  1  0.63164500  0.63823800  0.22474100  1
  O  O17  1  0.36835500  0.36176200  0.77525900  1
  O  O18  1  0.28966800  0.41955900  0.47095200  1
  O  O19  1  0.71033200  0.58044100  0.52904800  1
  O  O20  1  0.94517500  0.05556400  0.26193400  1
  O  O21  1  0.05482500  0.94443600  0.73806600  1
  O  O22  1  0.90047400  0.34545500  0.48979900  1
  O  O23  1  0.09952600  0.65454500  0.51020100  1
  O  O24  1  0.55619200  0.76653700  0.07253000  1
  O  O25  1  0.44380800  0.23346300  0.92747000  1
  O  O26  1  0.33078200  0.71814700  0.81852900  1
  O  O27  1  0.66921800  0.28185300  0.18147100  1
  O  O28  1  0.15330700  0.77678700  0.03204900  1
  O  O29  1  0.84669300  0.22321300  0.96795100  1
  O  O30  1  0.13874900  0.17046800  0.45317800  1
  O  O31  1  0.86125100  0.82953200  0.54682200  1
  O  O32  1  0.06351200  0.19133300  0.54723700  1
  O  O33  1  0.93648800  0.80866700  0.45276300  1
  O  O34  1  0.26349200  0.96088200  0.56103700  1
  O  O35  1  0.73650800  0.03911800  0.43896300  1
loop_
_geom_bond_atom_site_label_1
_geom_bond_atom_site_label_2
_geom_bond_distance
_geom_bond_site_symmetry_2
Al0 O9 1.743706 1_555
Al0 O28 1.800849 1_556
Al0 O26 1.910953 1_555
Al0 O3 1.985540 1_555
Al0 Br4 2.404533 1_556
Al1 O8 1.743706 1_555
Al1 O29 1.800849 1_554
Al1 O27 1.910953 1_555
Al1 O2 1.985540 1_555
Al1 Br5 2.404533 1_554
H0 O35 0.981480 1_555
H1 O34 0.981480 1_555
H2 O12 1.000107 1_555
H3 O13 1.000107 1_555
H4 O21 0.995561 1_555
H4 O9 2.149083 1_555
H5 O20 0.995561 1_555
H5 O8 2.149083 1_555
H6 O16 1.001709 1_555
H6 O14 1.793907 1_555
H7 O17 1.001709 1_555
H7 O15 1.793907 1_555
H10 O1 0.973204 1_555
H11 O0 0.973204 1_555
H12 O25 0.977653 1_555
H13 O24 0.977653 1_555
H14 O16 0.974407 1_555
H15 O17 0.974407 1_555
H16 O26 0.971044 1_555
H17 O27 0.971044 1_555
H18 O3 0.969812 1_555
H19 O2 0.969812 1_555
H20 O32 0.985182 1_555
H21 O33 0.985182 1_555
H22 O3 1.001535 1_555
H23 O2 1.001535 1_555
H24 H9 0.750055 1_555
H25 H8 0.750055 1_555
H26 O34 0.970981 1_545
H27 O35 0.970981 1_565
H28 O26 1.052724 1_555
H28 O1 1.412937 1_555
H29 O27 1.052724 1_555
H29 O0 1.412937 1_555
H30 O6 0.994272 1_555
H30 O15 2.376911 1_555
H31 O7 0.994272 1_555
H31 O14 2.376911 1_555
H32 O1 1.001739 1_555
H33 O0 1.001739 1_555
H34 O24 0.984151 1_555
H35 O25 0.984151 1_555
Br0 O14 1.710716 1_555
Br0 O12 1.814324 1_555
Br1 O15 1.710716 1_555
Br1 O13 1.814324 1_555
Br2 O23 1.809944 1_555
Br2 O8 2.068997 1_455
Br2 H2 2.290649 1_555
Br3 O22 1.809944 1_555
Br3 O9 2.068997 1_655
Br3 H3 2.290649 1_555
Br4 H11 2.506366 1_565
Br4 O28 2.569848 1_555
Br4 H12 3.033314 1_564
Br4 H8 3.069913 1_565
Br4 H25 3.149836 1_565
Br4 H13 3.244743 1_555
Br5 H10 2.506366 1_545
Br5 O29 2.569848 1_555
Br5 H13 3.033314 1_546
Br5 H9 3.069913 1_545
Br5 H24 3.149836 1_545
Br5 H12 3.244743 1_555
O10 O30 1.316885 1_555
O10 O20 1.497864 1_455
O11 O31 1.316885 1_555
O11 O21 1.497864 1_655
O18 O4 1.247844 1_555
O19 O5 1.247844 1_555
O30 O32 1.592362 1_555
O31 O33 1.592362 1_555
