# generated using pymatgen
data_Sb8Pb7S19
_symmetry_space_group_name_H-M   'P 1'
_cell_length_a   9.14923690
_cell_length_b   9.14923690
_cell_length_c   22.05846383
_cell_angle_alpha   88.33633112
_cell_angle_beta   88.33633112
_cell_angle_gamma   81.81620982
_symmetry_Int_Tables_number   1
_chemical_formula_structural   Sb8Pb7S19
_chemical_formula_sum   'Sb16 Pb14 S38'
_cell_volume   1826.32909537
_cell_formula_units_Z   2
loop_
 _symmetry_equiv_pos_site_id
 _symmetry_equiv_pos_as_xyz
  1  'x, y, z'
loop_
 _atom_site_type_symbol
 _atom_site_label
 _atom_site_symmetry_multiplicity
 _atom_site_fract_x
 _atom_site_fract_y
 _atom_site_fract_z
 _atom_site_occupancy
  Sb  Sb0  1  0.09605900  0.72527200  0.32229500  1
  Sb  Sb1  1  0.77963400  0.97403300  0.00251500  1
  Sb  Sb2  1  0.46985300  0.23559400  0.10506000  1
  Sb  Sb3  1  0.76440600  0.53014700  0.39494000  1
  Sb  Sb4  1  0.39868900  0.36937400  0.44691800  1
  Sb  Sb5  1  0.27472800  0.90394100  0.17770500  1
  Sb  Sb6  1  0.02596700  0.22036600  0.49748500  1
  Sb  Sb7  1  0.90394100  0.27472800  0.67770500  1
  Sb  Sb8  1  0.36937400  0.39868900  0.94691800  1
  Sb  Sb9  1  0.97403300  0.77963400  0.50251500  1
  Sb  Sb10  1  0.72527200  0.09605900  0.82229500  1
  Sb  Sb11  1  0.53014700  0.76440600  0.89494000  1
  Sb  Sb12  1  0.63062600  0.60131100  0.05308200  1
  Sb  Sb13  1  0.22036600  0.02596700  0.99748500  1
  Sb  Sb14  1  0.60131100  0.63062600  0.55308200  1
  Sb  Sb15  1  0.23559400  0.46985300  0.60506000  1
  Pb  Pb0  1  0.92603000  0.37301900  0.93015400  1
  Pb  Pb1  1  0.07397000  0.62698100  0.06984600  1
  Pb  Pb2  1  0.49609400  0.50390600  0.25000000  1
  Pb  Pb3  1  0.90522300  0.25515000  0.12753200  1
  Pb  Pb4  1  0.25515000  0.90522300  0.62753200  1
  Pb  Pb5  1  0.62698100  0.07397000  0.56984600  1
  Pb  Pb6  1  0.12778400  0.26773500  0.31172600  1
  Pb  Pb7  1  0.50390600  0.49609400  0.75000000  1
  Pb  Pb8  1  0.26773500  0.12778400  0.81172600  1
  Pb  Pb9  1  0.87221600  0.73226500  0.68827400  1
  Pb  Pb10  1  0.74485000  0.09477700  0.37246800  1
  Pb  Pb11  1  0.09477700  0.74485000  0.87246800  1
  Pb  Pb12  1  0.37301900  0.92603000  0.43015400  1
  Pb  Pb13  1  0.73226500  0.87221600  0.18827400  1
  S  S0  1  0.67668600  0.87307200  0.47798300  1
  S  S1  1  0.03562800  0.05030500  0.91783000  1
  S  S2  1  0.82416300  0.74624600  0.32206900  1
  S  S3  1  0.27234500  0.72531200  0.97352000  1
  S  S4  1  0.72531200  0.27234500  0.47352000  1
  S  S5  1  0.59142700  0.49082400  0.88144700  1
  S  S6  1  0.05030500  0.03562800  0.41783000  1
  S  S7  1  0.49082400  0.59142700  0.38144700  1
  S  S8  1  0.12692800  0.32331400  0.02201700  1
  S  S9  1  0.43037200  0.11028400  0.92680000  1
  S  S10  1  0.63895400  0.18949500  0.19000500  1
  S  S11  1  0.46309600  0.82549000  0.25255100  1
  S  S12  1  0.94969500  0.96437200  0.58217000  1
  S  S13  1  0.17451000  0.53690400  0.24744900  1
  S  S14  1  0.05674500  0.94325500  0.25000000  1
  S  S15  1  0.11028400  0.43037200  0.42680000  1
  S  S16  1  0.94325500  0.05674500  0.75000000  1
  S  S17  1  0.32331400  0.12692800  0.52201700  1
  S  S18  1  0.74624600  0.82416300  0.82206900  1
  S  S19  1  0.81050500  0.36104600  0.30999500  1
  S  S20  1  0.88971600  0.56962800  0.57320000  1
  S  S21  1  0.96437200  0.94969500  0.08217000  1
  S  S22  1  0.82549000  0.46309600  0.75255100  1
  S  S23  1  0.40857300  0.50917600  0.11855300  1
  S  S24  1  0.72765500  0.27468800  0.02648000  1
  S  S25  1  0.56626600  0.78780200  0.64119100  1
  S  S26  1  0.21219800  0.43373400  0.85880900  1
  S  S27  1  0.18949500  0.63895400  0.69000500  1
  S  S28  1  0.36104600  0.81050500  0.80999500  1
  S  S29  1  0.50917600  0.40857300  0.61855300  1
  S  S30  1  0.43373400  0.21219800  0.35880900  1
  S  S31  1  0.56962800  0.88971600  0.07320000  1
  S  S32  1  0.27468800  0.72765500  0.52648000  1
  S  S33  1  0.87307200  0.67668600  0.97798300  1
  S  S34  1  0.78780200  0.56626600  0.14119100  1
  S  S35  1  0.53690400  0.17451000  0.74744900  1
  S  S36  1  0.25375400  0.17583700  0.17793100  1
  S  S37  1  0.17583700  0.25375400  0.67793100  1
loop_
_geom_bond_atom_site_label_1
_geom_bond_atom_site_label_2
_geom_bond_distance
_geom_bond_site_symmetry_2
Pb0 S8 2.759745 1_656
Pb0 S24 2.957747 1_556
Pb0 S33 2.970555 1_555
Pb0 S1 2.997505 1_655
Pb0 S26 3.124808 1_655
Pb0 S5 3.297322 1_555
Pb1 S33 2.759745 1_454
Pb1 S3 2.957747 1_554
Pb1 S8 2.970555 1_555
Pb1 S21 2.997505 1_455
Pb1 S34 3.124808 1_455
Pb1 S23 3.297322 1_555
Pb2 S11 2.916654 1_555
Pb2 S13 2.916654 1_555
Pb2 S7 3.027613 1_555
Pb2 S23 3.027613 1_555
Pb2 S19 3.284038 1_555
Pb2 S10 3.284038 1_555
Pb2 S30 3.631997 1_555
Pb2 S34 3.631997 1_555
Pb3 S24 2.782885 1_555
Pb3 S10 2.892813 1_555
Pb3 S34 2.916803 1_555
Pb3 S21 2.967270 1_545
Pb3 S8 3.149993 1_655
Pb3 S36 3.380995 1_655
Pb4 S32 2.782885 1_555
Pb4 S27 2.892813 1_555
Pb4 S25 2.916803 1_555
Pb4 S12 2.967270 1_455
Pb4 S17 3.149993 1_565
Pb4 S37 3.380995 1_565
Pb5 S0 2.759745 1_545
Pb5 S4 2.957747 1_555
Pb5 S17 2.970555 1_555
Pb5 S12 2.997505 1_545
Pb5 S25 3.124808 1_545
Pb5 S29 3.297322 1_555
Pb6 S13 2.884390 1_555
Pb6 S19 2.907902 1_455
Pb6 S15 2.968321 1_555
Pb6 S30 2.984230 1_555
Pb6 S36 3.227414 1_555
Pb6 S6 3.245570 1_555
Pb6 S14 3.453290 1_545
Pb7 S22 2.916654 1_555
Pb7 S35 2.916654 1_555
Pb7 S5 3.027613 1_555
Pb7 S29 3.027613 1_555
Pb7 S28 3.284038 1_555
Pb7 S27 3.284038 1_555
Pb7 S26 3.631997 1_555
Pb7 S25 3.631997 1_555
Pb8 S35 2.884390 1_555
Pb8 S28 2.907902 1_545
Pb8 S9 2.968321 1_555
Pb8 S26 2.984230 1_555
Pb8 S37 3.227414 1_555
Pb8 S1 3.245570 1_555
Pb8 S16 3.453290 1_455
Pb9 S22 2.884390 1_555
Pb9 S27 2.907902 1_655
Pb9 S20 2.968321 1_555
Pb9 S25 2.984230 1_555
Pb9 S18 3.227414 1_555
Pb9 S12 3.245570 1_555
Pb9 S16 3.453290 1_565
Pb10 S4 2.782885 1_555
Pb10 S19 2.892813 1_555
Pb10 S30 2.916803 1_555
Pb10 S6 2.967270 1_655
Pb10 S0 3.149993 1_545
Pb10 S2 3.380995 1_545
Pb11 S3 2.782885 1_555
Pb11 S28 2.892813 1_555
Pb11 S26 2.916803 1_555
Pb11 S1 2.967270 1_565
Pb11 S33 3.149993 1_455
Pb11 S18 3.380995 1_455
Pb12 S17 2.759745 1_565
Pb12 S32 2.957747 1_555
Pb12 S0 2.970555 1_555
Pb12 S6 2.997505 1_565
Pb12 S30 3.124808 1_565
Pb12 S7 3.297322 1_555
Pb13 S11 2.884390 1_555
Pb13 S10 2.907902 1_565
Pb13 S31 2.968321 1_555
Pb13 S34 2.984230 1_555
Pb13 S2 3.227414 1_555
Pb13 S21 3.245570 1_555
Pb13 S14 3.453290 1_655
S0 Sb9 2.796652 1_555
S0 Sb14 2.880278 1_555
S0 Sb3 3.657184 1_555
S0 S2 3.809440 1_555
S1 Sb13 2.456879 1_555
S1 Sb1 3.098018 1_446
S2 Sb0 2.467785 1_655
S2 Sb3 2.619922 1_555
S3 Sb13 2.787422 1_565
S3 Sb11 2.943241 1_555
S3 Sb8 3.062509 1_555
S3 Sb12 3.777847 1_556
S4 Sb6 2.787422 1_655
S4 Sb3 2.943241 1_555
S4 Sb4 3.062509 1_555
S4 Sb14 3.777847 1_555
S5 Sb11 2.510439 1_555
S5 Sb8 2.677732 1_555
S6 Sb6 2.456879 1_555
S6 Sb9 3.098018 1_445
S7 Sb3 2.510439 1_555
S7 Sb4 2.677732 1_555
S8 Sb13 2.796652 1_554
S8 Sb8 2.880278 1_554
S8 Sb2 3.657184 1_555
S9 Sb13 2.626057 1_555
S9 Sb8 2.665599 1_555
S9 Sb11 3.257432 1_545
S9 Sb10 3.488133 1_555
S9 Sb1 3.689096 1_546
S10 Sb2 2.453400 1_555
S11 Sb5 2.440362 1_555
S11 S7 3.502584 1_555
S12 Sb9 2.456879 1_555
S12 Sb6 3.098018 1_665
S13 Sb0 2.440362 1_555
S13 S23 3.502584 1_555
S14 Sb5 2.508873 1_555
S14 Sb0 2.508873 1_555
S14 S2 3.321675 1_455
S14 S36 3.321675 1_565
S15 Sb6 2.626057 1_555
S15 Sb4 2.665599 1_555
S15 Sb3 3.257432 1_455
S15 Sb0 3.488133 1_555
S15 Sb9 3.689096 1_455
S16 Sb7 2.508873 1_555
S16 Sb10 2.508873 1_555
S16 S18 3.321675 1_545
S16 S37 3.321675 1_655
S17 Sb6 2.796652 1_555
S17 Sb4 2.880278 1_555
S17 Sb15 3.657184 1_555
S17 S37 3.809440 1_555
S18 Sb10 2.467785 1_565
S18 Sb11 2.619922 1_555
S18 S33 3.809440 1_555
S19 Sb3 2.453400 1_555
S20 Sb9 2.626057 1_555
S20 Sb14 2.665599 1_555
S20 Sb15 3.257432 1_655
S20 Sb7 3.488133 1_555
S20 Sb6 3.689096 1_655
S21 Sb1 2.456879 1_555
S21 Sb13 3.098018 1_664
S22 Sb7 2.440362 1_555
S22 S5 3.502584 1_555
S23 Sb2 2.510439 1_555
S23 Sb12 2.677732 1_555
S24 Sb1 2.787422 1_545
S24 Sb2 2.943241 1_555
S24 Sb12 3.062509 1_555
S24 Sb8 3.777847 1_554
S25 Sb14 2.437823 1_555
S26 Sb8 2.437823 1_555
S27 Sb15 2.453400 1_555
S28 Sb11 2.453400 1_555
S29 Sb15 2.510439 1_555
S29 Sb14 2.677732 1_555
S29 S35 3.502584 1_555
S30 Sb4 2.437823 1_555
S31 Sb1 2.626057 1_555
S31 Sb12 2.665599 1_555
S31 Sb2 3.257432 1_565
S31 Sb5 3.488133 1_555
S31 Sb13 3.689096 1_564
S32 Sb9 2.787422 1_455
S32 Sb15 2.943241 1_555
S32 Sb14 3.062509 1_555
S32 Sb4 3.777847 1_555
S33 Sb1 2.796652 1_556
S33 Sb12 2.880278 1_556
S33 Sb11 3.657184 1_555
S34 Sb12 2.437823 1_555
S35 Sb10 2.440362 1_555
S36 Sb5 2.467785 1_545
S36 Sb2 2.619922 1_555
S36 S8 3.809440 1_555
S37 Sb7 2.467785 1_455
S37 Sb15 2.619922 1_555
