# generated using pymatgen
data_Gd2In
_symmetry_space_group_name_H-M   'P 1'
_cell_length_a   5.44231435
_cell_length_b   5.44219490
_cell_length_c   6.75690347
_cell_angle_alpha   90.00095871
_cell_angle_beta   89.99837576
_cell_angle_gamma   120.00066935
_symmetry_Int_Tables_number   1
_chemical_formula_structural   Gd2In
_chemical_formula_sum   'Gd4 In2'
_cell_volume   173.31379459
_cell_formula_units_Z   2
loop_
 _symmetry_equiv_pos_site_id
 _symmetry_equiv_pos_as_xyz
  1  'x, y, z'
loop_
 _atom_site_type_symbol
 _atom_site_label
 _atom_site_symmetry_multiplicity
 _atom_site_fract_x
 _atom_site_fract_y
 _atom_site_fract_z
 _atom_site_occupancy
  Gd  Gd0  1  0.33333532  0.66667612  0.75001429  1
  Gd  Gd1  1  0.99999746  0.00000618  0.99996092  1
  Gd  Gd2  1  0.99999823  0.00000143  0.50003791  1
  Gd  Gd3  1  0.66666572  0.33332216  0.24998076  1
  In  In0  1  0.66667714  0.33335363  0.74999872  1
  In  In1  1  0.33332713  0.66664049  0.25000540  1
loop_
_geom_bond_atom_site_label_1
_geom_bond_atom_site_label_2
_geom_bond_distance
_geom_bond_site_symmetry_2
Gd0 In0 3.142060 1_455
Gd0 In0 3.142083 1_565
Gd0 In0 3.142087 1_555
Gd0 In1 3.378392 1_556
Gd0 In1 3.378512 1_555
Gd0 Gd1 3.567178 1_455
Gd0 Gd1 3.567184 1_465
Gd0 Gd1 3.567236 1_565
Gd0 Gd2 3.567266 1_565
Gd0 Gd2 3.567284 1_455
Gd0 Gd2 3.567334 1_465
Gd1 Gd2 3.377932 1_555
Gd1 Gd2 3.378972 1_556
Gd1 In0 3.567146 1_545
Gd1 In0 3.567290 1_655
Gd1 In0 3.567311 1_555
Gd1 In1 3.567334 1_656
Gd1 Gd3 3.567335 1_556
Gd1 Gd3 3.567470 1_546
Gd1 Gd3 3.567496 1_656
Gd1 In1 3.567514 1_546
Gd1 In1 3.567689 1_646
Gd2 In0 3.567131 1_545
Gd2 In0 3.567252 1_555
Gd2 In1 3.567324 1_655
Gd2 In0 3.567351 1_655
Gd2 Gd3 3.567543 1_655
Gd2 In1 3.567548 1_545
Gd2 In1 3.567550 1_645
Gd2 Gd3 3.567555 1_555
Gd2 Gd3 3.567561 1_545
Gd3 In1 3.142052 1_555
Gd3 In1 3.142076 1_655
Gd3 In1 3.142102 1_545
Gd3 In0 3.378330 1_554
Gd3 In0 3.378573 1_555
