# generated using pymatgen
data_BaAl3P2(HO7)2
_symmetry_space_group_name_H-M   'P 1'
_cell_length_a   7.20475973
_cell_length_b   7.20475973
_cell_length_c   7.52899803
_cell_angle_alpha   61.18874184
_cell_angle_beta   61.18874184
_cell_angle_gamma   53.80512979
_symmetry_Int_Tables_number   1
_chemical_formula_structural   BaAl3P2(HO7)2
_chemical_formula_sum   'Ba1 Al3 P2 H2 O14'
_cell_volume   265.37504754
_cell_formula_units_Z   1
loop_
 _symmetry_equiv_pos_site_id
 _symmetry_equiv_pos_as_xyz
  1  'x, y, z'
loop_
 _atom_site_type_symbol
 _atom_site_label
 _atom_site_symmetry_multiplicity
 _atom_site_fract_x
 _atom_site_fract_y
 _atom_site_fract_z
 _atom_site_occupancy
  Ba  Ba0  1  0.00000000  0.00000000  0.00000000  1
  Al  Al0  1  0.00000000  0.00000000  0.50000000  1
  Al  Al1  1  0.50000000  0.00000000  0.50000000  1
  Al  Al2  1  0.00000000  0.50000000  0.50000000  1
  P  P0  1  0.71924000  0.71924000  0.87858800  1
  P  P1  1  0.28076000  0.28076000  0.12141200  1
  H  H0  1  0.67185300  0.67185300  0.35317200  1
  H  H1  1  0.32814700  0.32814700  0.64682800  1
  O  O0  1  0.64500500  0.64500500  0.11915700  1
  O  O1  1  0.35499500  0.35499500  0.88084300  1
  O  O2  1  0.86227100  0.86227100  0.78247400  1
  O  O3  1  0.13772900  0.13772900  0.21752600  1
  O  O4  1  0.87715900  0.49592800  0.79086700  1
  O  O5  1  0.49592800  0.87715900  0.79086700  1
  O  O6  1  0.50407200  0.12284100  0.20913300  1
  O  O7  1  0.12284100  0.50407200  0.20913300  1
  O  O8  1  0.68851700  0.68851700  0.46703800  1
  O  O9  1  0.31148300  0.31148300  0.53296200  1
  O  O10  1  0.21195400  0.97532500  0.59338300  1
  O  O11  1  0.97532500  0.21195400  0.59338300  1
  O  O12  1  0.02467500  0.78804600  0.40661700  1
  O  O13  1  0.78804600  0.02467500  0.40661700  1
loop_
_geom_bond_atom_site_label_1
_geom_bond_atom_site_label_2
_geom_bond_distance
_geom_bond_site_symmetry_2
Ba0 O13 2.726493 1_455
Ba0 O12 2.726493 1_545
Ba0 O11 2.726493 1_454
Ba0 O10 2.726493 1_544
Ba0 O4 2.866159 1_454
Ba0 O5 2.866159 1_544
Ba0 O7 2.866159 1_545
Ba0 O6 2.866159 1_455
Ba0 O3 2.991210 1_555
Ba0 O2 2.991210 1_444
Al0 O10 1.857857 1_545
Al0 O11 1.857857 1_455
Al0 O12 1.857857 1_545
Al0 O13 1.857857 1_455
Al0 O2 1.893979 1_445
Al0 O3 1.893979 1_555
Al1 O9 1.885353 1_555
Al1 O8 1.885353 1_545
Al1 O5 1.918490 1_545
Al1 O6 1.918490 1_555
Al1 O13 1.934352 1_555
Al1 O10 1.934352 1_545
Al2 O9 1.885353 1_555
Al2 O8 1.885353 1_455
Al2 O4 1.918490 1_455
Al2 O7 1.918490 1_555
Al2 O12 1.934352 1_555
Al2 O11 1.934352 1_455
H0 O8 0.989558 1_555
H0 O0 1.969845 1_555
H1 O9 0.989558 1_555
H1 O1 1.969845 1_555
O0 P0 1.524186 1_554
O1 P1 1.524186 1_556
O2 P0 1.569788 1_555
O3 P1 1.569788 1_555
O4 P0 1.567545 1_555
O5 P0 1.567545 1_555
O6 P1 1.567545 1_555
O7 P1 1.567545 1_555
O10 O11 1.542807 1_465
O12 O13 1.542807 1_465
