# generated using pymatgen
data_Cr4FeCuS8
_symmetry_space_group_name_H-M   'P 1'
_cell_length_a   7.00877453
_cell_length_b   7.00877453
_cell_length_c   7.00877453
_cell_angle_alpha   60.00000000
_cell_angle_beta   60.00000000
_cell_angle_gamma   60.00000000
_symmetry_Int_Tables_number   1
_chemical_formula_structural   Cr4FeCuS8
_chemical_formula_sum   'Cr4 Fe1 Cu1 S8'
_cell_volume   243.45083586
_cell_formula_units_Z   1
loop_
 _symmetry_equiv_pos_site_id
 _symmetry_equiv_pos_as_xyz
  1  'x, y, z'
loop_
 _atom_site_type_symbol
 _atom_site_label
 _atom_site_symmetry_multiplicity
 _atom_site_fract_x
 _atom_site_fract_y
 _atom_site_fract_z
 _atom_site_occupancy
  Cr  Cr0  1  0.62265700  0.62265700  0.62265700  1
  Cr  Cr1  1  0.13202800  0.62265700  0.62265700  1
  Cr  Cr2  1  0.62265700  0.62265700  0.13202800  1
  Cr  Cr3  1  0.62265700  0.13202800  0.62265700  1
  Fe  Fe0  1  0.00000000  0.00000000  0.00000000  1
  Cu  Cu0  1  0.25000000  0.25000000  0.25000000  1
  S  S0  1  0.86708700  0.86708700  0.39874000  1
  S  S1  1  0.86708700  0.39874000  0.86708700  1
  S  S2  1  0.39874000  0.86708700  0.86708700  1
  S  S3  1  0.86708700  0.86708700  0.86708700  1
  S  S4  1  0.38292000  0.38292000  0.85124100  1
  S  S5  1  0.38292000  0.85124100  0.38292000  1
  S  S6  1  0.38292000  0.38292000  0.38292000  1
  S  S7  1  0.85124100  0.38292000  0.38292000  1
loop_
_geom_bond_atom_site_label_1
_geom_bond_atom_site_label_2
_geom_bond_distance
_geom_bond_site_symmetry_2
Cr0 S5 2.377535 1_555
Cr0 S7 2.377535 1_555
Cr0 S4 2.377535 1_555
Cr0 S0 2.427029 1_555
Cr0 S1 2.427029 1_555
Cr0 S2 2.427029 1_555
Cr1 S6 2.377536 1_555
Cr1 S4 2.377546 1_555
Cr1 S5 2.377546 1_555
Cr1 S1 2.427018 1_455
Cr1 S0 2.427018 1_455
Cr1 S3 2.427028 1_455
Cr2 S6 2.377536 1_555
Cr2 S7 2.377546 1_555
Cr2 S5 2.377546 1_555
Cr2 S1 2.427018 1_554
Cr2 S2 2.427018 1_554
Cr2 S3 2.427028 1_554
Cr3 S6 2.377536 1_555
Cr3 S7 2.377546 1_555
Cr3 S4 2.377546 1_555
Cr3 S2 2.427018 1_545
Cr3 S0 2.427018 1_545
Cr3 S3 2.427028 1_545
Fe0 S3 2.281840 1_444
Fe0 S0 2.281846 1_445
Fe0 S1 2.281846 1_454
Fe0 S2 2.281846 1_544
Cu0 S4 2.281954 1_554
Cu0 S5 2.281954 1_545
Cu0 S7 2.281954 1_455
Cu0 S6 2.281960 1_555
