# generated using pymatgen
data_RbTiAsO5
_symmetry_space_group_name_H-M   'P 1'
_cell_length_a   6.70833654
_cell_length_b   10.76169787
_cell_length_c   13.29144465
_cell_angle_alpha   90.00000000
_cell_angle_beta   90.00000000
_cell_angle_gamma   90.00000000
_symmetry_Int_Tables_number   1
_chemical_formula_structural   RbTiAsO5
_chemical_formula_sum   'Rb8 Ti8 As8 O40'
_cell_volume   959.55047385
_cell_formula_units_Z   8
loop_
 _symmetry_equiv_pos_site_id
 _symmetry_equiv_pos_as_xyz
  1  'x, y, z'
loop_
 _atom_site_type_symbol
 _atom_site_label
 _atom_site_symmetry_multiplicity
 _atom_site_fract_x
 _atom_site_fract_y
 _atom_site_fract_z
 _atom_site_occupancy
  Rb  Rb0  1  0.19184615  0.40595053  0.38951857  1
  Rb  Rb1  1  0.80815385  0.90595053  0.61048143  1
  Rb  Rb2  1  0.30815385  0.40595053  0.88951857  1
  Rb  Rb3  1  0.69184615  0.90595053  0.11048143  1
  Rb  Rb4  1  0.28187603  0.15424550  0.11841242  1
  Rb  Rb5  1  0.71812397  0.65424550  0.88158758  1
  Rb  Rb6  1  0.21812397  0.15424550  0.61841242  1
  Rb  Rb7  1  0.78187603  0.65424550  0.38158758  1
  Ti  Ti0  1  0.00384769  0.47261666  0.12766616  1
  Ti  Ti1  1  0.50384769  0.97261666  0.37233384  1
  Ti  Ti2  1  0.49615231  0.47261666  0.62766616  1
  Ti  Ti3  1  0.99615231  0.97261666  0.87233384  1
  Ti  Ti4  1  0.26211141  0.72356234  0.24703083  1
  Ti  Ti5  1  0.73788859  0.22356234  0.75296917  1
  Ti  Ti6  1  0.23788859  0.72356234  0.74703083  1
  Ti  Ti7  1  0.76211141  0.22356234  0.25296917  1
  As  As0  1  0.00653397  0.96699659  0.32070928  1
  As  As1  1  0.66905682  0.21923800  0.50054495  1
  As  As2  1  0.16905682  0.71923800  0.99945505  1
  As  As3  1  0.83094318  0.21923800  0.00054495  1
  As  As4  1  0.33094318  0.71923800  0.49945505  1
  As  As5  1  0.50653397  0.46699659  0.17929072  1
  As  As6  1  0.49346603  0.96699659  0.82070928  1
  As  As7  1  0.99346603  0.46699659  0.67929072  1
  O  O0  1  0.96257635  0.08897557  0.24279553  1
  O  O1  1  0.03742365  0.58897557  0.75720447  1
  O  O2  1  0.53742365  0.08897557  0.74279553  1
  O  O3  1  0.46257635  0.58897557  0.25720447  1
  O  O4  1  0.04264724  0.84433275  0.24134941  1
  O  O5  1  0.95735276  0.34433275  0.75865059  1
  O  O6  1  0.45735276  0.84433275  0.74134941  1
  O  O7  1  0.54264724  0.34433275  0.25865059  1
  O  O8  1  0.20685488  -0.00029492  0.39335937  1
  O  O9  1  0.79314512  0.49970508  0.60664063  1
  O  O10  1  0.29314512  -0.00029492  0.89335937  1
  O  O11  1  0.70685488  0.49970508  0.10664063  1
  O  O12  1  0.80487720  0.93081034  0.39138093  1
  O  O13  1  0.19512280  0.43081034  0.60861907  1
  O  O14  1  0.69512280  0.93081034  0.89138093  1
  O  O15  1  0.67850763  0.24177389  0.89952619  1
  O  O16  1  0.30487720  0.43081034  0.10861907  1
  O  O17  1  0.43618257  0.59013055  0.71773371  1
  O  O18  1  0.93618257  0.09013055  0.78226629  1
  O  O19  1  0.06381743  0.59013055  0.21773371  1
  O  O20  1  0.94883132  0.34063244  0.21755249  1
  O  O21  1  0.05116868  0.84063244  0.78244751  1
  O  O22  1  0.55116868  0.34063244  0.71755249  1
  O  O23  1  0.44883132  0.84063244  0.28244751  1
  O  O24  1  0.49272493  0.83718161  0.48711359  1
  O  O25  1  0.50727507  0.33718161  0.51288641  1
  O  O26  1  0.00727507  0.83718161  0.98711359  1
  O  O27  1  0.99272493  0.33718161  0.01288641  1
  O  O28  1  0.46385923  0.58568479  0.50993456  1
  O  O29  1  0.53614077  0.08568479  0.49006544  1
  O  O30  1  0.03614077  0.58568479  0.00993456  1
  O  O31  1  0.96385923  0.08568479  0.99006544  1
  O  O32  1  0.18743014  0.69846536  0.39513403  1
  O  O33  1  0.81256986  0.19846536  0.60486597  1
  O  O34  1  0.31256986  0.69846536  0.89513403  1
  O  O35  1  0.68743014  0.19846536  0.10486597  1
  O  O36  1  0.17850763  0.74177389  0.60047381  1
  O  O37  1  0.82149237  0.24177389  0.39952619  1
  O  O38  1  0.32149237  0.74177389  0.10047381  1
  O  O39  1  0.56381743  0.09013055  0.28226629  1
loop_
_geom_bond_atom_site_label_1
_geom_bond_atom_site_label_2
_geom_bond_distance
_geom_bond_site_symmetry_2
Rb0 Rb7 3.835987 1_455
Rb1 Rb6 3.835987 1_665
Rb2 Rb5 3.835987 1_555
Rb3 Rb4 3.835987 1_565
As0 O8 1.691800 1_565
As0 O12 1.692338 1_455
As0 O0 1.697816 1_465
As0 O4 1.707014 1_555
As1 O25 1.678037 1_555
As1 O29 1.697100 1_555
As1 O33 1.702770 1_555
As1 O37 1.705084 1_555
As2 O26 1.678037 1_555
As2 O30 1.697100 1_556
As2 O34 1.702770 1_555
As2 O38 1.705084 1_556
As3 O27 1.678037 1_555
As3 O31 1.697100 1_554
As3 O35 1.702770 1_555
As3 O15 1.705084 1_554
As4 O24 1.678037 1_555
As4 O28 1.697100 1_555
As4 O32 1.702770 1_555
As4 O36 1.705084 1_555
As5 O11 1.691800 1_555
As5 O16 1.692338 1_555
As5 O3 1.697816 1_555
As5 O7 1.707014 1_555
As6 O10 1.691800 1_565
As6 O14 1.692338 1_555
As6 O2 1.697816 1_565
As6 O6 1.707014 1_555
As7 O9 1.691800 1_555
As7 O13 1.692338 1_655
As7 O1 1.697816 1_655
As7 O5 1.707014 1_555
O0 Ti7 1.981047 1_555
O0 Rb4 2.795460 1_655
O0 Rb3 3.204808 1_545
O1 Ti6 1.981047 1_555
O1 Rb5 2.795460 1_455
O1 Rb2 3.204808 1_555
O2 Ti5 1.981047 1_555
O2 Rb6 2.795460 1_555
O2 Rb1 3.204808 1_545
O3 Ti4 1.981047 1_555
O3 Rb7 2.795460 1_555
O3 Rb0 3.204808 1_555
O4 Ti4 1.965298 1_555
O4 Rb3 3.000549 1_455
O4 Rb7 3.274034 1_455
O5 Ti5 1.965298 1_555
O5 Rb2 3.000549 1_655
O5 Rb6 3.274034 1_655
O6 Ti6 1.965298 1_555
O6 Rb1 3.000549 1_555
O6 Rb5 3.274034 1_555
O7 Ti7 1.965298 1_555
O7 Rb0 3.000549 1_555
O7 Rb4 3.274034 1_555
O8 Ti1 2.032843 1_545
O8 Rb6 3.423365 1_555
O9 Ti2 2.032843 1_555
O9 Rb7 3.423365 1_555
O10 Ti3 2.032843 1_445
O10 Rb4 3.423365 1_556
O11 Ti0 2.032843 1_655
O11 Rb5 3.423365 1_554
O12 Ti1 2.084350 1_555
O12 Rb1 2.924508 1_555
O12 Rb7 2.983145 1_555
O13 Ti2 2.084350 1_555
O13 Rb0 2.924508 1_555
O13 Rb6 2.983145 1_555
O14 Ti3 2.084350 1_555
O14 Rb3 2.924508 1_556
O14 Rb5 2.983145 1_555
O15 Ti5 1.997904 1_555
O15 Rb2 3.051536 1_555
O16 Ti0 2.084350 1_555
O16 Rb2 2.924508 1_554
O16 Rb4 2.983145 1_555
O17 Ti2 1.787259 1_555
O17 Ti6 1.995767 1_555
O17 Rb5 2.965867 1_555
O17 Rb2 3.143189 1_555
O18 Ti3 1.787259 1_545
O18 Ti5 1.995767 1_555
O18 Rb6 2.965867 1_655
O18 Rb1 3.143189 1_545
O19 Ti0 1.787259 1_555
O19 Ti4 1.995767 1_555
O19 Rb7 2.965867 1_455
O19 Rb0 3.143189 1_555
O20 Ti7 1.837888 1_555
O20 Ti0 1.892361 1_655
O20 Rb0 2.894144 1_655
O20 Rb4 3.278919 1_655
O21 Ti6 1.837888 1_555
O21 Ti3 1.892361 1_455
O21 Rb1 2.894144 1_455
O21 Rb5 3.278919 1_455
O22 Ti5 1.837888 1_555
O22 Ti2 1.892361 1_555
O22 Rb2 2.894144 1_555
O22 Rb6 3.278919 1_555
O23 Ti4 1.837888 1_555
O23 Ti1 1.892361 1_555
O23 Rb3 2.894144 1_555
O23 Rb7 3.278919 1_555
O24 Ti1 2.111238 1_555
O24 Rb1 2.777393 1_555
O24 Rb7 3.099288 1_555
O25 Ti2 2.111238 1_555
O25 Rb0 2.777393 1_555
O25 Rb6 3.099288 1_555
O26 Ti3 2.111238 1_455
O26 Rb3 2.777393 1_456
O26 Rb5 3.099288 1_455
O27 Ti0 2.111238 1_655
O27 Rb2 2.777393 1_654
O27 Rb4 3.099288 1_655
O28 Ti2 1.994045 1_555
O28 Rb7 2.829450 1_555
O28 Rb0 3.103651 1_555
O29 Ti1 1.994045 1_545
O29 Rb6 2.829450 1_555
O29 Rb1 3.103651 1_545
O30 Ti0 1.994045 1_555
O30 Rb5 2.829450 1_454
O30 Rb2 3.103651 1_554
O31 Ti3 1.994045 1_545
O31 Rb4 2.829450 1_656
O31 Rb3 3.103651 1_546
O32 Ti4 2.049134 1_555
O32 Rb7 2.767763 1_455
O32 Rb0 3.148980 1_555
O33 Ti5 2.049134 1_555
O33 Rb6 2.767763 1_655
O33 Rb1 3.148980 1_545
O34 Ti6 2.049134 1_555
O34 Rb5 2.767763 1_555
O34 Rb2 3.148980 1_555
O35 Ti7 2.049134 1_555
O35 Rb4 2.767763 1_555
O35 Rb3 3.148980 1_545
O36 Ti6 1.997904 1_555
O36 Rb1 3.051536 1_455
O37 Ti7 1.997904 1_555
O37 Rb0 3.051536 1_655
O38 Ti4 1.997904 1_555
O38 Rb3 3.051536 1_555
O39 Ti1 1.787259 1_545
O39 Ti7 1.995767 1_555
O39 Rb4 2.965867 1_555
O39 Rb3 3.143189 1_545
