# generated using pymatgen
data_Fe3Te2(CO)9
_symmetry_space_group_name_H-M   'P 1'
_cell_length_a   6.97209400
_cell_length_b   9.39229726
_cell_length_c   13.16161295
_cell_angle_alpha   94.83288204
_cell_angle_beta   95.23050788
_cell_angle_gamma   110.47618592
_symmetry_Int_Tables_number   1
_chemical_formula_structural   Fe3Te2(CO)9
_chemical_formula_sum   'Fe6 Te4 C18 O18'
_cell_volume   797.80241891
_cell_formula_units_Z   2
loop_
 _symmetry_equiv_pos_site_id
 _symmetry_equiv_pos_as_xyz
  1  'x, y, z'
loop_
 _atom_site_type_symbol
 _atom_site_label
 _atom_site_symmetry_multiplicity
 _atom_site_fract_x
 _atom_site_fract_y
 _atom_site_fract_z
 _atom_site_occupancy
  Fe  Fe0  1  0.12670600  0.89114900  0.24553000  1
  Fe  Fe1  1  0.87329400  0.10885100  0.75447000  1
  Fe  Fe2  1  0.42949300  0.27452300  0.16180400  1
  Fe  Fe3  1  0.57050700  0.72547700  0.83819600  1
  Fe  Fe4  1  0.28605600  0.18971100  0.34380900  1
  Fe  Fe5  1  0.71394400  0.81028900  0.65619100  1
  Te  Te0  1  0.05483600  0.11123300  0.17103400  1
  Te  Te1  1  0.49739700  0.93629100  0.75085700  1
  Te  Te2  1  0.50260300  0.06370900  0.24914300  1
  Te  Te3  1  0.94516400  0.88876700  0.82896600  1
  C  C0  1  0.78848900  0.22967500  0.67654700  1
  C  C1  1  0.09228500  0.78301600  0.12408800  1
  C  C2  1  0.50401700  0.35801100  0.38966600  1
  C  C3  1  0.69945100  0.38695100  0.18835200  1
  C  C4  1  0.21151100  0.77032500  0.32345300  1
  C  C5  1  0.57490000  0.79339000  0.96745200  1
  C  C6  1  0.27285800  0.07925300  0.44689800  1
  C  C7  1  0.89649200  0.73140800  0.61591600  1
  C  C8  1  0.10350800  0.26859200  0.38408400  1
  C  C9  1  0.64711900  0.56392700  0.85434900  1
  C  C10  1  0.86655600  0.81146800  0.27530400  1
  C  C11  1  0.13344400  0.18853200  0.72469600  1
  C  C12  1  0.49598300  0.64198900  0.61033400  1
  C  C13  1  0.72714200  0.92074700  0.55310200  1
  C  C14  1  0.42510000  0.20661000  0.03254800  1
  C  C15  1  0.90771500  0.21698400  0.87591200  1
  C  C16  1  0.30054900  0.61304900  0.81164800  1
  C  C17  1  0.35288100  0.43607300  0.14565100  1
  O  O0  1  0.26166400  0.68926400  0.37183000  1
  O  O1  1  0.73833600  0.31073600  0.62817000  1
  O  O2  1  0.69932900  0.75286700  0.29311300  1
  O  O3  1  0.57770200  0.83749800  0.05305100  1
  O  O4  1  0.93764100  0.28727500  0.95642100  1
  O  O5  1  0.12541200  0.54087000  0.79652600  1
  O  O6  1  0.06235900  0.71272500  0.04357900  1
  O  O7  1  0.98737300  0.32005300  0.41370900  1
  O  O8  1  0.31132500  0.54302600  0.13384900  1
  O  O9  1  0.42229800  0.16250200  0.94694900  1
  O  O10  1  0.73024500  0.98386600  0.48039400  1
  O  O11  1  0.30067100  0.24713300  0.70688700  1
  O  O12  1  0.35627000  0.53295600  0.57549400  1
  O  O13  1  0.68867500  0.45697400  0.86615100  1
  O  O14  1  0.26975500  0.01613400  0.51960600  1
  O  O15  1  0.87458800  0.45913000  0.20347400  1
  O  O16  1  0.01262700  0.67994700  0.58629100  1
  O  O17  1  0.64373000  0.46704400  0.42450600  1
loop_
_geom_bond_atom_site_label_1
_geom_bond_atom_site_label_2
_geom_bond_distance
_geom_bond_site_symmetry_2
Fe0 Te0 2.542032 1_565
Fe0 Te2 2.547566 1_565
Fe1 Te3 2.542032 1_545
Fe1 Te1 2.547566 1_545
Fe2 Te0 2.544914 1_555
Fe2 Te2 2.546478 1_555
Fe3 Te3 2.544914 1_555
Fe3 Te1 2.546478 1_555
Fe4 Te0 2.555589 1_555
Fe4 Te2 2.564569 1_555
Fe5 Te3 2.555589 1_555
Fe5 Te1 2.564569 1_555
C0 O1 1.155284 1_555
C0 Fe1 1.801175 1_555
C0 Te1 3.093851 1_545
C1 O6 1.160880 1_555
C1 Fe0 1.769145 1_555
C1 Te0 3.197602 1_565
C1 Te2 3.313176 1_565
C2 O17 1.161622 1_555
C2 Fe4 1.778673 1_555
C2 Te2 3.190236 1_555
C3 O15 1.159315 1_555
C3 Fe2 1.790840 1_555
C3 Te2 3.071695 1_555
C4 O0 1.155284 1_555
C4 Fe0 1.801175 1_555
C4 Te2 3.093851 1_565
C5 O3 1.163169 1_556
C5 Fe3 1.759525 1_555
C5 Te3 3.209987 1_555
C5 Te1 3.330373 1_555
C6 O14 1.165364 1_555
C6 Fe4 1.766038 1_555
C6 Te2 3.197069 1_555
C7 O16 1.157966 1_655
C7 Fe5 1.779411 1_555
C7 Te3 2.989933 1_555
C8 O7 1.157966 1_455
C8 Fe4 1.779411 1_555
C8 Te0 2.989933 1_555
C9 O13 1.157098 1_555
C9 Fe3 1.798186 1_555
C9 Te3 3.098533 1_555
C10 O2 1.157518 1_555
C10 Fe0 1.797997 1_655
C10 Te0 3.150753 1_665
C11 O11 1.157518 1_555
C11 Fe1 1.797997 1_455
C11 Te3 3.150753 1_445
C12 O12 1.161622 1_555
C12 Fe5 1.778673 1_555
C12 Te1 3.190236 1_555
C13 O10 1.165364 1_555
C13 Fe5 1.766038 1_555
C13 Te1 3.197069 1_555
C14 O9 1.163169 1_554
C14 Fe2 1.759525 1_555
C14 Te0 3.209987 1_555
C14 Te2 3.330373 1_555
C15 O4 1.160880 1_555
C15 Fe1 1.769145 1_555
C15 Te3 3.197602 1_545
C15 Te1 3.313176 1_545
C16 O5 1.159315 1_555
C16 Fe3 1.790840 1_555
C16 Te1 3.071695 1_555
C17 O8 1.157098 1_555
C17 Fe2 1.798186 1_555
C17 Te0 3.098533 1_555
O3 Te2 3.398525 1_565
O3 Te0 3.534038 1_665
O4 Te0 3.562518 1_656
O6 Te3 3.562518 1_454
O9 Te1 3.398525 1_545
O9 Te3 3.534038 1_445
O10 Te2 3.561131 1_565
O14 Te1 3.561131 1_545
