# generated using pymatgen
data_ZnH14C2(N2Cl)4
_symmetry_space_group_name_H-M   'P 1'
_cell_length_a   24.87536000
_cell_length_b   7.79524300
_cell_length_c   8.02247293
_cell_angle_alpha   78.69254667
_cell_angle_beta   90.00000000
_cell_angle_gamma   90.00000000
_symmetry_Int_Tables_number   1
_chemical_formula_structural   ZnH14C2(N2Cl)4
_chemical_formula_sum   'Zn4 H56 C8 N32 Cl16'
_cell_volume   1525.43736963
_cell_formula_units_Z   4
loop_
 _symmetry_equiv_pos_site_id
 _symmetry_equiv_pos_as_xyz
  1  'x, y, z'
loop_
 _atom_site_type_symbol
 _atom_site_label
 _atom_site_symmetry_multiplicity
 _atom_site_fract_x
 _atom_site_fract_y
 _atom_site_fract_z
 _atom_site_occupancy
  Zn  Zn0  1  0.63220300  0.12955100  0.10519300  1
  Zn  Zn1  1  0.36779700  0.87044900  0.89480700  1
  Zn  Zn2  1  0.86779700  0.12955100  0.60519300  1
  Zn  Zn3  1  0.13220300  0.87044900  0.39480700  1
  H  H0  1  0.36436800  0.35632900  0.50670800  1
  H  H1  1  0.51946400  0.35120600  0.22889800  1
  H  H2  1  0.04723100  0.23062600  0.91775300  1
  H  H3  1  0.63563200  0.64367100  0.49329200  1
  H  H4  1  0.16344100  0.69691800  0.07867400  1
  H  H5  1  0.66373000  0.24105500  0.63007700  1
  H  H6  1  0.76812600  0.81801400  0.45225600  1
  H  H7  1  0.74777300  0.36076300  0.56976000  1
  H  H8  1  0.42012800  0.29695400  0.23645700  1
  H  H9  1  0.33627000  0.75894500  0.36992300  1
  H  H10  1  0.54540800  0.18030900  0.72488900  1
  H  H11  1  0.86436800  0.64367100  0.99329200  1
  H  H12  1  0.25222700  0.63923700  0.43024000  1
  H  H13  1  0.56806200  0.60490100  0.13504100  1
  H  H14  1  0.42091700  0.62619300  0.35301700  1
  H  H15  1  0.45276900  0.23062600  0.41775300  1
  H  H16  1  0.06806200  0.39509900  0.36495900  1
  H  H17  1  0.33655900  0.69691800  0.57867400  1
  H  H18  1  0.73187400  0.81801400  0.95225600  1
  H  H19  1  0.75222700  0.36076300  0.06976000  1
  H  H20  1  0.07987200  0.29695400  0.73645700  1
  H  H21  1  0.79933000  0.61353000  0.49509200  1
  H  H22  1  0.13563200  0.35632900  0.00670800  1
  H  H23  1  0.01946400  0.64879400  0.27110200  1
  H  H24  1  0.29933000  0.38647000  0.00490800  1
  H  H25  1  0.45336800  0.19852600  0.81063300  1
  H  H26  1  0.24777300  0.63923700  0.93024000  1
  H  H27  1  0.16373000  0.75894500  0.86992300  1
  H  H28  1  0.93193800  0.60490100  0.63504100  1
  H  H29  1  0.23187400  0.18198600  0.54774400  1
  H  H30  1  0.07908300  0.62619300  0.85301700  1
  H  H31  1  0.04663200  0.19852600  0.31063300  1
  H  H32  1  0.48053600  0.64879400  0.77110200  1
  H  H33  1  0.95276900  0.76937400  0.08224700  1
  H  H34  1  0.43193800  0.39509900  0.86495900  1
  H  H35  1  0.32569300  0.16568100  0.58221800  1
  H  H36  1  0.67430700  0.83431900  0.41778200  1
  H  H37  1  0.04540800  0.81969100  0.77511100  1
  H  H38  1  0.20067000  0.38647000  0.50490800  1
  H  H39  1  0.83627000  0.24105500  0.13007700  1
  H  H40  1  0.26812600  0.18198600  0.04774400  1
  H  H41  1  0.57987200  0.70304600  0.76354300  1
  H  H42  1  0.83655900  0.30308200  0.92132600  1
  H  H43  1  0.92091700  0.37380700  0.14698300  1
  H  H44  1  0.95336800  0.80147400  0.68936700  1
  H  H45  1  0.57908300  0.37380700  0.64698300  1
  H  H46  1  0.95459200  0.18030900  0.22488900  1
  H  H47  1  0.82569300  0.83431900  0.91778200  1
  H  H48  1  0.66344100  0.30308200  0.42132600  1
  H  H49  1  0.70067000  0.61353000  0.99509200  1
  H  H50  1  0.45459200  0.81969100  0.27511100  1
  H  H51  1  0.54723100  0.76937400  0.58224700  1
  H  H52  1  0.54663200  0.80147400  0.18936700  1
  H  H53  1  0.92012800  0.70304600  0.26354300  1
  H  H54  1  0.98053600  0.35120600  0.72889800  1
  H  H55  1  0.17430700  0.16568100  0.08221800  1
  C  C0  1  0.49411100  0.59675300  0.25062100  1
  C  C1  1  0.50588900  0.40324700  0.74937900  1
  C  C2  1  0.00588900  0.59675300  0.75062100  1
  C  C3  1  0.28343400  0.39117700  0.50290600  1
  C  C4  1  0.99411100  0.40324700  0.24937900  1
  C  C5  1  0.78343400  0.60882300  0.99709400  1
  C  C6  1  0.21656600  0.39117700  0.00290600  1
  C  C7  1  0.71656600  0.60882300  0.49709400  1
  N  N0  1  0.48802300  0.42408300  0.25949900  1
  N  N1  1  0.46157900  0.32432500  0.82127700  1
  N  N2  1  0.44139400  0.33878600  0.33056600  1
  N  N3  1  0.83586100  0.34869900  0.03318200  1
  N  N4  1  0.54375700  0.31225800  0.68613600  1
  N  N5  1  0.78643900  0.43390000  0.04238900  1
  N  N6  1  0.67176200  0.70330100  0.46437800  1
  N  N7  1  0.98802300  0.57591700  0.24050100  1
  N  N8  1  0.55860600  0.66121400  0.66943400  1
  N  N9  1  0.66413900  0.34869900  0.53318200  1
  N  N10  1  0.71356100  0.43390000  0.54238900  1
  N  N11  1  0.73515600  0.68604700  0.98575600  1
  N  N12  1  0.76484400  0.68604700  0.48575600  1
  N  N13  1  0.32823800  0.29669900  0.53562200  1
  N  N14  1  0.05860600  0.33878600  0.83056600  1
  N  N15  1  0.01197700  0.42408300  0.75949900  1
  N  N16  1  0.28643900  0.56610000  0.45761100  1
  N  N17  1  0.45624300  0.68774200  0.31386400  1
  N  N18  1  0.82823800  0.70330100  0.96437800  1
  N  N19  1  0.04375700  0.68774200  0.81386400  1
  N  N20  1  0.21356100  0.56610000  0.95761100  1
  N  N21  1  0.53842100  0.67567500  0.17872300  1
  N  N22  1  0.51197700  0.57591700  0.74050100  1
  N  N23  1  0.95624300  0.31225800  0.18613600  1
  N  N24  1  0.03842100  0.32432500  0.32127700  1
  N  N25  1  0.33586100  0.65130100  0.46681800  1
  N  N26  1  0.96157900  0.67567500  0.67872300  1
  N  N27  1  0.94139400  0.66121400  0.16943400  1
  N  N28  1  0.16413900  0.65130100  0.96681800  1
  N  N29  1  0.23515600  0.31395300  0.51424400  1
  N  N30  1  0.17176200  0.29669900  0.03562200  1
  N  N31  1  0.26484400  0.31395300  0.01424400  1
  Cl  Cl0  1  0.06266200  0.94741200  0.20202000  1
  Cl  Cl1  1  0.37398400  0.01360700  0.11479700  1
  Cl  Cl2  1  0.62740900  0.43114000  0.02498900  1
  Cl  Cl3  1  0.78684300  0.08791200  0.74409300  1
  Cl  Cl4  1  0.21315700  0.91208800  0.25590700  1
  Cl  Cl5  1  0.12601600  0.01360700  0.61479700  1
  Cl  Cl6  1  0.87398400  0.98639300  0.38520300  1
  Cl  Cl7  1  0.62601600  0.98639300  0.88520300  1
  Cl  Cl8  1  0.28684300  0.91208800  0.75590700  1
  Cl  Cl9  1  0.37259100  0.56886000  0.97501100  1
  Cl  Cl10  1  0.43733800  0.94741200  0.70202000  1
  Cl  Cl11  1  0.56266200  0.05258800  0.29798000  1
  Cl  Cl12  1  0.12740900  0.56886000  0.47501100  1
  Cl  Cl13  1  0.87259100  0.43114000  0.52498900  1
  Cl  Cl14  1  0.71315700  0.08791200  0.24409300  1
  Cl  Cl15  1  0.93733800  0.05258800  0.79798000  1
loop_
_geom_bond_atom_site_label_1
_geom_bond_atom_site_label_2
_geom_bond_distance
_geom_bond_site_symmetry_2
H0 N13 1.017515 1_555
H1 N0 1.024392 1_555
H2 N14 1.024165 1_555
H3 N6 1.017515 1_555
H4 N28 1.028174 1_554
H5 N9 1.026001 1_555
H6 N12 1.014264 1_555
H7 N10 1.023926 1_555
H8 N2 1.026024 1_555
H9 N25 1.026001 1_555
H10 N4 1.015336 1_555
H11 N18 1.017515 1_555
H12 N16 1.023926 1_555
H13 N21 1.023061 1_555
H14 N17 1.020763 1_555
H15 N2 1.024165 1_555
H16 N24 1.023061 1_555
H17 N25 1.028174 1_555
H18 N11 1.014264 1_555
H19 N5 1.023926 1_555
H20 N14 1.026024 1_555
H21 N12 1.021991 1_555
H22 N30 1.017515 1_555
H23 N7 1.024392 1_455
H24 N31 1.021991 1_555
H25 N1 1.021514 1_555
H26 N20 1.023926 1_555
H27 N28 1.026001 1_555
H28 N26 1.023061 1_555
H29 N29 1.014264 1_555
H30 N19 1.020763 1_555
H31 N24 1.021514 1_555
H32 N22 1.024392 1_555
H33 N27 1.024165 1_555
H34 N1 1.023061 1_555
H35 N13 1.018390 1_555
H36 N6 1.018390 1_555
H37 N19 1.015336 1_555
H38 N29 1.021991 1_555
H39 N3 1.026001 1_555
H40 N31 1.014264 1_555
H41 N8 1.026024 1_555
H42 N3 1.028174 1_556
H43 N23 1.020763 1_555
H44 N26 1.021514 1_555
H45 N4 1.020763 1_555
H46 N23 1.015336 1_555
H47 N18 1.018390 1_555
H48 N9 1.028174 1_555
H49 N11 1.021991 1_555
H50 N17 1.015336 1_555
H51 N8 1.024165 1_555
H52 N21 1.021514 1_555
H53 N27 1.026024 1_555
H54 N15 1.024392 1_655
H55 N30 1.018390 1_555
C0 N21 1.336764 1_555
C0 N17 1.337515 1_555
C0 N0 1.342439 1_555
C1 N1 1.336764 1_555
C1 N4 1.337515 1_555
C1 N22 1.342439 1_555
C2 N26 1.336764 1_455
C2 N19 1.337515 1_555
C2 N15 1.342439 1_555
C3 N13 1.333279 1_555
C3 N29 1.338439 1_555
C3 N16 1.342625 1_555
C4 N24 1.336764 1_655
C4 N23 1.337515 1_555
C4 N7 1.342439 1_555
C5 N18 1.333279 1_555
C5 N11 1.338439 1_555
C5 N5 1.342625 1_556
C6 N30 1.333279 1_555
C6 N31 1.338439 1_555
C6 N20 1.342625 1_554
C7 N6 1.333279 1_555
C7 N12 1.338439 1_555
C7 N10 1.342625 1_555
N0 N2 1.401392 1_555
N3 N5 1.406131 1_555
N10 N9 1.406131 1_555
N14 N15 1.401392 1_555
N16 N25 1.406131 1_555
N20 N28 1.406131 1_555
N22 N8 1.401392 1_555
N27 N7 1.401392 1_555
Cl0 Zn3 2.319597 1_555
Cl0 H31 2.327853 1_565
Cl0 H23 2.524794 1_555
Cl0 H2 2.871898 1_564
Cl1 Zn1 2.270708 1_544
Cl1 H50 2.682788 1_545
Cl1 H9 2.723375 1_545
Cl1 H8 2.827394 1_555
Cl1 H40 2.944372 1_555
Cl2 H13 2.294024 1_555
Cl2 H49 2.294856 1_554
Cl2 Zn0 2.315609 1_555
Cl2 H41 2.923491 1_554
Cl2 H1 3.142404 1_555
Cl2 H19 3.161181 1_555
Cl3 Zn2 2.293569 1_555
Cl3 H47 2.388134 1_545
Cl3 H7 2.501586 1_555
Cl3 H42 2.701786 1_555
Cl3 H18 2.776188 1_545
Cl4 Zn3 2.293569 1_555
Cl4 H55 2.388134 1_565
Cl4 H12 2.501586 1_555
Cl4 H4 2.701786 1_555
Cl4 H40 2.776188 1_565
Cl5 Zn3 2.270708 1_545
Cl5 H37 2.682788 1_545
Cl5 H27 2.723375 1_545
Cl5 H20 2.827394 1_555
Cl5 H29 2.944372 1_555
Cl6 Zn2 2.270708 1_565
Cl6 H46 2.682788 1_565
Cl6 H39 2.723375 1_565
Cl6 H53 2.827394 1_555
Cl6 H6 2.944372 1_555
Cl7 Zn0 2.270708 1_566
Cl7 H10 2.682788 1_565
Cl7 H5 2.723375 1_565
Cl7 H41 2.827394 1_555
Cl7 H18 2.944372 1_555
Cl8 Zn1 2.293569 1_555
Cl8 H35 2.388134 1_565
Cl8 H26 2.501586 1_555
Cl8 H17 2.701786 1_555
Cl8 H29 2.776188 1_565
Cl9 H34 2.294024 1_555
Cl9 H24 2.294856 1_556
Cl9 Zn1 2.315609 1_555
Cl9 H8 2.923491 1_556
Cl9 H32 3.142404 1_555
Cl9 H26 3.161181 1_555
Cl10 Zn1 2.319597 1_555
Cl10 H25 2.327853 1_565
Cl10 H32 2.524794 1_555
Cl10 H15 2.871898 1_565
Cl11 Zn0 2.319597 1_555
Cl11 H52 2.327853 1_545
Cl11 H1 2.524794 1_555
Cl11 H51 2.871898 1_545
Cl12 H16 2.294024 1_555
Cl12 H38 2.294856 1_555
Cl12 Zn3 2.315609 1_555
Cl12 H20 2.923491 1_555
Cl12 H23 3.142404 1_555
Cl12 H12 3.161181 1_555
Cl13 H28 2.294024 1_555
Cl13 H21 2.294856 1_555
Cl13 Zn2 2.315609 1_555
Cl13 H53 2.923491 1_555
Cl13 H54 3.142404 1_555
Cl13 H7 3.161181 1_555
Cl14 Zn0 2.293569 1_555
Cl14 H36 2.388134 1_545
Cl14 H19 2.501586 1_555
Cl14 H48 2.701786 1_555
Cl14 H6 2.776188 1_545
Cl15 Zn2 2.319597 1_555
Cl15 H44 2.327853 1_545
Cl15 H54 2.524794 1_555
Cl15 H33 2.871898 1_546
