# generated using pymatgen
data_Eu2GeO5
_symmetry_space_group_name_H-M   'P 1'
_cell_length_a   7.16447367
_cell_length_b   6.88714646
_cell_length_c   9.34124558
_cell_angle_alpha   73.80175523
_cell_angle_beta   90.00000000
_cell_angle_gamma   90.00000000
_symmetry_Int_Tables_number   1
_chemical_formula_structural   Eu2GeO5
_chemical_formula_sum   'Eu8 Ge4 O20'
_cell_volume   442.62540498
_cell_formula_units_Z   4
loop_
 _symmetry_equiv_pos_site_id
 _symmetry_equiv_pos_as_xyz
  1  'x, y, z'
loop_
 _atom_site_type_symbol
 _atom_site_label
 _atom_site_symmetry_multiplicity
 _atom_site_fract_x
 _atom_site_fract_y
 _atom_site_fract_z
 _atom_site_occupancy
  Eu  Eu0  1  0.63129020  0.26487754  0.51501399  1
  Eu  Eu1  1  0.86740900  0.95202515  0.87028385  1
  Eu  Eu2  1  0.86870980  0.76487754  0.51501399  1
  Eu  Eu3  1  0.13129020  0.23512246  0.48498601  1
  Eu  Eu4  1  0.13259100  0.04797485  0.12971615  1
  Eu  Eu5  1  0.63259100  0.45202515  0.87028385  1
  Eu  Eu6  1  0.36870980  0.73512246  0.48498601  1
  Eu  Eu7  1  0.36740900  0.54797485  0.12971615  1
  Ge  Ge0  1  0.58537865  0.01983283  0.19495884  1
  Ge  Ge1  1  0.08537865  0.48016717  0.80504116  1
  Ge  Ge2  1  0.41462135  0.98016717  0.80504116  1
  Ge  Ge3  1  0.91462135  0.51983283  0.19495884  1
  O  O0  1  0.62762313  0.99753052  0.38618116  1
  O  O1  1  0.05688566  0.71999704  0.09391276  1
  O  O2  1  0.20565420  0.02776097  0.88127170  1
  O  O3  1  0.40856059  0.82956748  0.21701908  1
  O  O4  1  0.59143941  0.17043252  0.78298092  1
  O  O5  1  0.70565420  0.47223903  0.11872830  1
  O  O6  1  0.29434580  0.52776097  0.88127170  1
  O  O7  1  0.44311434  0.21999704  0.09391276  1
  O  O8  1  0.79434580  0.97223903  0.11872830  1
  O  O9  1  0.38385008  0.43169720  0.39383637  1
  O  O10  1  0.87237687  0.49753052  0.38618116  1
  O  O11  1  0.09143941  0.32956748  0.21701908  1
  O  O12  1  0.55688566  0.78000296  0.90608724  1
  O  O13  1  0.90856059  0.67043252  0.78298092  1
  O  O14  1  0.88385008  0.06830280  0.60616363  1
  O  O15  1  0.12762313  0.50246948  0.61381884  1
  O  O16  1  0.94311434  0.28000296  0.90608724  1
  O  O17  1  0.11614992  0.93169720  0.39383637  1
  O  O18  1  0.61614992  0.56830280  0.60616363  1
  O  O19  1  0.37237687  0.00246948  0.61381884  1
loop_
_geom_bond_atom_site_label_1
_geom_bond_atom_site_label_2
_geom_bond_distance
_geom_bond_site_symmetry_2
Eu0 O9 2.240193 1_555
Eu0 O14 2.277906 1_555
Eu0 O4 2.421144 1_555
Eu0 O10 2.433782 1_555
Eu0 O0 2.464858 1_545
Eu0 O18 2.469097 1_555
Eu0 O19 2.574549 1_555
Eu1 O13 2.322834 1_555
Eu1 O14 2.374864 1_565
Eu1 O8 2.420676 1_556
Eu1 O16 2.435128 1_565
Eu1 O4 2.480427 1_565
Eu1 O2 2.486985 1_665
Eu1 O12 2.498770 1_555
Eu1 O1 2.626365 1_656
Eu2 O17 2.240193 1_655
Eu2 O18 2.277906 1_555
Eu2 O13 2.421144 1_555
Eu2 O0 2.433782 1_555
Eu2 O10 2.464858 1_555
Eu2 O14 2.469097 1_565
Eu2 O15 2.574549 1_655
Eu3 O14 2.240193 1_455
Eu3 O9 2.277906 1_555
Eu3 O11 2.421144 1_555
Eu3 O19 2.433782 1_555
Eu3 O15 2.464858 1_555
Eu3 O17 2.469097 1_545
Eu3 O10 2.574549 1_455
Eu4 O11 2.322834 1_555
Eu4 O17 2.374864 1_545
Eu4 O2 2.420676 1_554
Eu4 O1 2.435128 1_545
Eu4 O3 2.480427 1_545
Eu4 O8 2.486985 1_445
Eu4 O7 2.498770 1_555
Eu4 O16 2.626365 1_454
Eu5 O4 2.322834 1_555
Eu5 O18 2.374864 1_555
Eu5 O5 2.420676 1_556
Eu5 O12 2.435128 1_555
Eu5 O13 2.480427 1_555
Eu5 O6 2.486985 1_555
Eu5 O16 2.498770 1_555
Eu5 O7 2.626365 1_556
Eu6 O18 2.240193 1_555
Eu6 O17 2.277906 1_555
Eu6 O3 2.421144 1_555
Eu6 O15 2.433782 1_555
Eu6 O19 2.464858 1_565
Eu6 O9 2.469097 1_555
Eu6 O0 2.574549 1_555
Eu7 O3 2.322834 1_555
Eu7 O9 2.374864 1_555
Eu7 O6 2.420676 1_554
Eu7 O7 2.435128 1_555
Eu7 O11 2.480427 1_555
Eu7 O5 2.486985 1_555
Eu7 O1 2.498770 1_555
Eu7 O12 2.626365 1_554
Ge0 O8 1.728053 1_545
Ge0 O7 1.761890 1_555
Ge0 O0 1.775620 1_545
Ge0 O3 1.792685 1_545
Ge1 O6 1.728053 1_555
Ge1 O16 1.761890 1_455
Ge1 O15 1.775620 1_555
Ge1 O13 1.792685 1_455
Ge2 O2 1.728053 1_565
Ge2 O12 1.761890 1_555
Ge2 O19 1.775620 1_565
Ge2 O4 1.792685 1_565
Ge3 O5 1.728053 1_555
Ge3 O1 1.761890 1_655
Ge3 O10 1.775620 1_555
Ge3 O11 1.792685 1_655
O0 O14 2.896370 1_565
O3 O9 2.782615 1_555
O10 O18 2.896370 1_555
O11 O17 2.782615 1_545
O11 O9 2.874006 1_555
O13 O14 2.782615 1_565
O13 O18 2.874006 1_555
O14 O4 2.874006 1_555
O15 O9 2.896370 1_555
O17 O3 2.874006 1_555
O17 O19 2.896370 1_565
O18 O4 2.782615 1_555
