# generated using pymatgen
data_MnF2
_symmetry_space_group_name_H-M   'P 1'
_cell_length_a   5.28400300
_cell_length_b   5.28398901
_cell_length_c   5.26041401
_cell_angle_alpha   90.00494453
_cell_angle_beta   90.00171688
_cell_angle_gamma   90.00016261
_symmetry_Int_Tables_number   1
_chemical_formula_structural   MnF2
_chemical_formula_sum   'Mn4 F8'
_cell_volume   146.87398704
_cell_formula_units_Z   4
loop_
 _symmetry_equiv_pos_site_id
 _symmetry_equiv_pos_as_xyz
  1  'x, y, z'
loop_
 _atom_site_type_symbol
 _atom_site_label
 _atom_site_symmetry_multiplicity
 _atom_site_fract_x
 _atom_site_fract_y
 _atom_site_fract_z
 _atom_site_occupancy
  Mn  Mn0  1  0.50000000  0.50003900  0.99997500  1
  Mn  Mn1  1  0.00006500  0.00003800  0.00000100  1
  Mn  Mn2  1  0.99994000  0.49998100  0.49998400  1
  Mn  Mn3  1  0.50001200  0.99996300  0.50003700  1
  F  F0  1  0.27682200  0.72318600  0.75984500  1
  F  F1  1  0.72315900  0.27683300  0.75987600  1
  F  F2  1  0.78193800  0.78192400  0.73082600  1
  F  F3  1  0.21808600  0.21811000  0.73071900  1
  F  F4  1  0.72318000  0.72316500  0.24019100  1
  F  F5  1  0.78190600  0.21806300  0.26922800  1
  F  F6  1  0.21808600  0.78190000  0.26922800  1
  F  F7  1  0.27680500  0.27679700  0.24009100  1
loop_
_geom_bond_atom_site_label_1
_geom_bond_atom_site_label_2
_geom_bond_distance
_geom_bond_site_symmetry_2
F0 Mn0 2.092077 1_555
F0 Mn3 2.323359 1_555
F0 Mn2 2.323733 1_455
F0 Mn1 2.423711 1_566
F0 F6 2.617909 1_555
F0 F2 2.637742 1_455
F0 F3 2.637992 1_565
F0 F3 2.691152 1_555
F0 F2 2.691358 1_555
F0 F6 2.715245 1_556
F1 Mn0 2.092017 1_555
F1 Mn3 2.323459 1_545
F1 Mn2 2.323511 1_555
F1 Mn1 2.424006 1_656
F1 F5 2.618077 1_555
F1 F2 2.637891 1_545
F1 F3 2.638006 1_655
F1 F3 2.691152 1_555
F1 F2 2.691261 1_555
F1 F5 2.715159 1_556
F2 Mn1 2.159010 1_666
F2 Mn3 2.240674 1_555
F2 Mn2 2.240703 1_555
F2 Mn0 2.538306 1_555
F2 F4 2.617991 1_555
F2 F4 2.715244 1_556
F3 Mn1 2.159137 1_556
F3 Mn3 2.240603 1_545
F3 Mn2 2.240638 1_455
F3 Mn0 2.538489 1_555
F3 F7 2.617956 1_555
F3 F7 2.715142 1_556
F4 Mn0 2.092167 1_554
F4 Mn2 2.323184 1_555
F4 Mn3 2.323343 1_555
F4 Mn1 2.424406 1_665
F4 F5 2.637794 1_565
F4 F6 2.637856 1_655
F4 F6 2.691245 1_555
F4 F5 2.691284 1_555
F5 Mn1 2.159077 1_655
F5 Mn2 2.240415 1_555
F5 Mn3 2.240828 1_545
F5 Mn0 2.538749 1_554
F5 F7 2.637861 1_655
F5 F7 2.691304 1_555
F6 Mn1 2.159092 1_565
F6 Mn3 2.240684 1_555
F6 Mn2 2.240899 1_455
F6 Mn0 2.538324 1_554
F6 F7 2.637842 1_565
F6 F7 2.691289 1_555
F7 Mn0 2.092405 1_554
F7 Mn2 2.323774 1_455
F7 Mn3 2.323984 1_545
F7 Mn1 2.423129 1_555
