# generated using pymatgen
data_InCuPt2
_symmetry_space_group_name_H-M   'P 1'
_cell_length_a   3.77686609
_cell_length_b   4.04808140
_cell_length_c   4.04808140
_cell_angle_alpha   90.00000000
_cell_angle_beta   90.00000000
_cell_angle_gamma   90.00000000
_symmetry_Int_Tables_number   1
_chemical_formula_structural   InCuPt2
_chemical_formula_sum   'In1 Cu1 Pt2'
_cell_volume   61.89136495
_cell_formula_units_Z   1
loop_
 _symmetry_equiv_pos_site_id
 _symmetry_equiv_pos_as_xyz
  1  'x, y, z'
loop_
 _atom_site_type_symbol
 _atom_site_label
 _atom_site_symmetry_multiplicity
 _atom_site_fract_x
 _atom_site_fract_y
 _atom_site_fract_z
 _atom_site_occupancy
  In  In0  1  -0.00000000  0.50000000  0.50000000  1
  Cu  Cu0  1  0.00000000  -0.00000000  0.00000000  1
  Pt  Pt0  1  0.50000000  -0.00000000  0.50000000  1
  Pt  Pt1  1  0.50000000  0.50000000  0.00000000  1
loop_
_geom_bond_atom_site_label_1
_geom_bond_atom_site_label_2
_geom_bond_distance
_geom_bond_site_symmetry_2
In0 Pt0 2.768198 1_565
In0 Pt1 2.768198 1_555
In0 Pt1 2.768198 1_455
In0 Pt1 2.768198 1_556
In0 Pt1 2.768198 1_456
In0 Pt0 2.768198 1_465
In0 Pt0 2.768198 1_455
In0 Pt0 2.768198 1_555
Cu0 Pt0 2.768198 1_554
Cu0 Pt0 2.768198 1_454
Cu0 Pt1 2.768198 1_455
Cu0 Pt1 2.768198 1_555
Cu0 Pt0 2.768198 1_455
Cu0 Pt1 2.768198 1_445
Cu0 Pt1 2.768198 1_545
Cu0 Pt0 2.768198 1_555
Cu0 In0 2.862426 1_555
Cu0 In0 2.862426 1_554
Cu0 In0 2.862426 1_545
Cu0 In0 2.862426 1_544
Pt0 Pt1 2.862426 1_546
Pt0 Pt1 2.862426 1_545
Pt0 Pt1 2.862426 1_555
Pt0 Pt1 2.862426 1_556
