# generated using pymatgen
data_KLi3Ca7Ti2Si12(O18F)2
_symmetry_space_group_name_H-M   'P 1'
_cell_length_a   9.77609722
_cell_length_b   9.77609722
_cell_length_c   20.87636967
_cell_angle_alpha   70.59237899
_cell_angle_beta   70.59237899
_cell_angle_gamma   59.81778806
_symmetry_Int_Tables_number   1
_chemical_formula_structural   KLi3Ca7Ti2Si12(O18F)2
_chemical_formula_sum   'K2 Li6 Ca14 Ti4 Si24 O72 F4'
_cell_volume   1592.95549710
_cell_formula_units_Z   2
loop_
 _symmetry_equiv_pos_site_id
 _symmetry_equiv_pos_as_xyz
  1  'x, y, z'
loop_
 _atom_site_type_symbol
 _atom_site_label
 _atom_site_symmetry_multiplicity
 _atom_site_fract_x
 _atom_site_fract_y
 _atom_site_fract_z
 _atom_site_occupancy
  K  K0  1  0.92894484  0.07105516  0.25000000  1
  K  K1  1  0.07105516  0.92894484  0.75000000  1
  Li  Li0  1  0.43609915  0.07145638  0.24885595  1
  Li  Li1  1  0.92854362  0.56390085  0.25114405  1
  Li  Li2  1  0.41621461  0.58378539  0.25000000  1
  Li  Li3  1  0.07145638  0.43609915  0.74885595  1
  Li  Li4  1  0.56390085  0.92854362  0.75114405  1
  Li  Li5  1  0.58378539  0.41621461  0.75000000  1
  Ca  Ca0  1  0.43532190  0.71010902  0.00001857  1
  Ca  Ca1  1  0.71010902  0.43532190  0.50001857  1
  Ca  Ca2  1  0.86139191  0.42869890  0.99342004  1
  Ca  Ca3  1  0.14732274  0.29333129  0.48709426  1
  Ca  Ca4  1  0.70666871  0.85267726  0.01290574  1
  Ca  Ca5  1  0.56467810  0.28989098  0.99998143  1
  Ca  Ca6  1  0.00000000  -0.00000000  -0.00000000  1
  Ca  Ca7  1  0.13860809  0.57130110  0.00657996  1
  Ca  Ca8  1  0.42869890  0.86139191  0.49342004  1
  Ca  Ca9  1  0.28989098  0.56467810  0.49998143  1
  Ca  Ca10  1  0.29333129  0.14732274  0.98709426  1
  Ca  Ca11  1  0.85267726  0.70666871  0.51290574  1
  Ca  Ca12  1  0.00000000  -0.00000000  0.50000000  1
  Ca  Ca13  1  0.57130110  0.13860809  0.50657996  1
  Ti  Ti0  1  0.40490925  0.26418205  0.74826369  1
  Ti  Ti1  1  0.73581795  0.59509075  0.75173631  1
  Ti  Ti2  1  0.59509075  0.73581795  0.25173631  1
  Ti  Ti3  1  0.26418205  0.40490925  0.24826369  1
  Si  Si0  1  0.12088225  0.65144329  0.36044628  1
  Si  Si1  1  0.10749358  0.75428935  0.13973633  1
  Si  Si2  1  0.73295163  0.00516326  0.14016429  1
  Si  Si3  1  0.24599268  0.23107469  0.63790413  1
  Si  Si4  1  0.26704837  0.99483674  0.85983571  1
  Si  Si5  1  0.89250642  0.24571065  0.86026367  1
  Si  Si6  1  0.87911775  0.34855671  0.63955372  1
  Si  Si7  1  0.99483674  0.26704837  0.35983571  1
  Si  Si8  1  0.14075693  0.51084427  0.85927684  1
  Si  Si9  1  0.61126618  0.37152680  0.13960860  1
  Si  Si10  1  0.75400732  0.76892531  0.36209587  1
  Si  Si11  1  0.76892531  0.75400732  0.86209587  1
  Si  Si12  1  0.48915573  0.85924307  0.64072316  1
  Si  Si13  1  0.62847320  0.38873382  0.36039140  1
  Si  Si14  1  0.51084427  0.14075693  0.35927684  1
  Si  Si15  1  0.24571065  0.89250642  0.36026367  1
  Si  Si16  1  0.23107469  0.24599268  0.13790413  1
  Si  Si17  1  0.34855671  0.87911775  0.13955372  1
  Si  Si18  1  0.00516326  0.73295163  0.64016429  1
  Si  Si19  1  0.75428935  0.10749358  0.63973633  1
  Si  Si20  1  0.38873382  0.62847320  0.86039140  1
  Si  Si21  1  0.37152680  0.61126618  0.63960860  1
  Si  Si22  1  0.85924307  0.48915573  0.14072316  1
  Si  Si23  1  0.65144329  0.12088225  0.86044628  1
  O  O0  1  0.67751057  0.17610263  0.15952590  1
  O  O1  1  0.40760380  0.88769572  0.30578478  1
  O  O2  1  0.93954816  0.74352538  0.34485457  1
  O  O3  1  0.30210305  0.29975314  0.05670124  1
  O  O4  1  0.72658505  0.03099877  0.06050276  1
  O  O5  1  0.11649406  0.56394295  0.44146146  1
  O  O6  1  0.74352538  0.93954816  0.84485457  1
  O  O7  1  0.26136822  0.31107710  0.68949079  1
  O  O8  1  0.82877367  0.26502516  0.94028412  1
  O  O9  1  0.69789695  0.70024686  0.94329876  1
  O  O10  1  0.56394295  0.11649406  0.94146146  1
  O  O11  1  0.55622107  0.54571364  0.80859166  1
  O  O12  1  0.24779656  0.60623782  0.84544500  1
  O  O13  1  0.24381238  0.53110574  0.30831670  1
  O  O14  1  0.11230428  0.59239620  0.19421522  1
  O  O15  1  0.96900123  0.27341495  0.43949724  1
  O  O16  1  0.92232349  0.89930963  0.14714350  1
  O  O17  1  0.39923917  0.55860165  0.94169411  1
  O  O18  1  0.26502516  0.82877367  0.44028412  1
  O  O19  1  0.89930963  0.92232349  0.64714350  1
  O  O20  1  0.21087172  0.39760618  0.80440144  1
  O  O21  1  0.55860165  0.39923917  0.44169411  1
  O  O22  1  0.45428636  0.44377893  0.69140834  1
  O  O23  1  0.25647462  0.06045184  0.15514543  1
  O  O24  1  0.39376218  0.75220344  0.65455500  1
  O  O25  1  0.17610263  0.67751057  0.65952590  1
  O  O26  1  0.92707898  0.62007704  0.69570260  1
  O  O27  1  0.54571364  0.55622107  0.30859166  1
  O  O28  1  0.62007704  0.92707898  0.19570260  1
  O  O29  1  0.96424933  0.65028542  0.84419937  1
  O  O30  1  0.75220344  0.39376218  0.15455500  1
  O  O31  1  0.03099877  0.72658505  0.56050276  1
  O  O32  1  0.88350594  0.43605705  0.55853854  1
  O  O33  1  0.78912828  0.60239382  0.19559856  1
  O  O34  1  0.60076083  0.44139835  0.05830589  1
  O  O35  1  0.73497484  0.17122633  0.55971588  1
  O  O36  1  0.12380963  0.41771981  0.93941070  1
  O  O37  1  0.41771981  0.12380963  0.43941070  1
  O  O38  1  0.37992296  0.07292102  0.80429740  1
  O  O39  1  0.70024686  0.69789695  0.44329876  1
  O  O40  1  0.31107710  0.26136822  0.18949079  1
  O  O41  1  0.73863178  0.68892290  0.31050921  1
  O  O42  1  0.68892290  0.73863178  0.81050921  1
  O  O43  1  0.17122633  0.73497484  0.05971588  1
  O  O44  1  0.75618762  0.46889426  0.69168330  1
  O  O45  1  0.79498957  0.17611854  0.84038301  1
  O  O46  1  0.43605705  0.88350594  0.05853854  1
  O  O47  1  0.20501043  0.82388146  0.15961699  1
  O  O48  1  0.06045184  0.25647462  0.65514543  1
  O  O49  1  0.10069037  0.07767651  0.35285650  1
  O  O50  1  0.58228019  0.87619037  0.56058930  1
  O  O51  1  0.34971458  0.03575067  0.65580063  1
  O  O52  1  0.87619037  0.58228019  0.06058930  1
  O  O53  1  0.44377893  0.45428636  0.19140834  1
  O  O54  1  0.07292102  0.37992296  0.30429740  1
  O  O55  1  0.82389737  0.32248943  0.34047410  1
  O  O56  1  0.17611854  0.79498957  0.34038301  1
  O  O57  1  0.60239382  0.78912828  0.69559856  1
  O  O58  1  0.60623782  0.24779656  0.34544500  1
  O  O59  1  0.29975314  0.30210305  0.55670124  1
  O  O60  1  0.82388146  0.20501043  0.65961699  1
  O  O61  1  0.44139835  0.60076083  0.55830589  1
  O  O62  1  0.53110574  0.24381238  0.80831670  1
  O  O63  1  0.46889426  0.75618762  0.19168330  1
  O  O64  1  0.07767651  0.10069037  0.85285650  1
  O  O65  1  0.59239620  0.11230428  0.69421522  1
  O  O66  1  0.32248943  0.82389737  0.84047410  1
  O  O67  1  0.88769572  0.40760380  0.80578478  1
  O  O68  1  0.27341495  0.96900123  0.93949724  1
  O  O69  1  0.03575067  0.34971458  0.15580063  1
  O  O70  1  0.39760618  0.21087172  0.30440144  1
  O  O71  1  0.65028542  0.96424933  0.34419937  1
  F  F0  1  0.17246283  0.03452818  0.53801385  1
  F  F1  1  0.96547182  0.82753717  0.96198615  1
  F  F2  1  0.03452818  0.17246283  0.03801385  1
  F  F3  1  0.82753717  0.96547182  0.46198615  1
loop_
_geom_bond_atom_site_label_1
_geom_bond_atom_site_label_2
_geom_bond_distance
_geom_bond_site_symmetry_2
K0 O58 3.088353 1_555
K0 O30 3.088353 1_555
K0 O47 3.125932 1_645
K0 O56 3.125932 1_645
K0 O2 3.126255 1_545
K0 O23 3.126255 1_655
K0 O0 3.149957 1_555
K0 O55 3.149957 1_555
K0 O49 3.167274 1_655
K0 O16 3.167274 1_545
K0 O71 3.211544 1_545
K0 O69 3.211544 1_655
K1 O24 3.088353 1_555
K1 O12 3.088353 1_555
K1 O60 3.125932 1_465
K1 O45 3.125932 1_465
K1 O6 3.126255 1_455
K1 O48 3.126255 1_565
K1 O25 3.149957 1_555
K1 O66 3.149957 1_555
K1 O64 3.167274 1_565
K1 O19 3.167274 1_455
K1 O29 3.211544 1_455
K1 O51 3.211544 1_565
Li0 O1 1.892517 1_545
Li0 O70 1.894325 1_555
Li0 O28 1.902720 1_545
Li0 O40 1.916396 1_555
Li1 O14 1.892517 1_655
Li1 O33 1.894325 1_555
Li1 O54 1.902720 1_655
Li1 O41 1.916396 1_555
Li2 O53 1.907504 1_555
Li2 O27 1.907504 1_555
Li2 O13 1.918460 1_555
Li2 O63 1.918460 1_555
Li3 O67 1.892517 1_455
Li3 O20 1.894325 1_555
Li3 O26 1.902720 1_455
Li3 O7 1.916396 1_555
Li4 O65 1.892517 1_565
Li4 O57 1.894325 1_555
Li4 O38 1.902720 1_565
Li4 O42 1.916396 1_555
Li5 O22 1.907504 1_555
Li5 O11 1.907504 1_555
Li5 O62 1.918460 1_555
Li5 O44 1.918460 1_555
Ca0 O68 2.383944 1_554
Ca0 O43 2.389559 1_555
Ca0 O46 2.400094 1_555
Ca0 O9 2.409916 1_554
Ca0 O17 2.410417 1_554
Ca0 O34 2.430806 1_555
Ca1 O15 2.383944 1_555
Ca1 O35 2.389559 1_555
Ca1 O32 2.400094 1_555
Ca1 O39 2.409916 1_555
Ca1 O21 2.410417 1_555
Ca1 O61 2.430806 1_555
Ca2 F2 2.289246 1_656
Ca2 O9 2.386605 1_555
Ca2 O36 2.396966 1_655
Ca2 O8 2.412508 1_555
Ca2 O34 2.417096 1_556
Ca2 O52 2.448248 1_556
Ca3 F0 2.313597 1_555
Ca3 O37 2.380714 1_555
Ca3 O15 2.384401 1_455
Ca3 O5 2.389850 1_555
Ca3 O59 2.447445 1_555
Ca3 O32 2.455884 1_455
Ca4 F1 2.313597 1_554
Ca4 O52 2.380714 1_555
Ca4 O4 2.384401 1_565
Ca4 O46 2.389850 1_555
Ca4 O9 2.447445 1_554
Ca4 O10 2.455884 1_564
Ca5 O4 2.383944 1_556
Ca5 O8 2.389559 1_555
Ca5 O10 2.400094 1_555
Ca5 O3 2.409916 1_556
Ca5 O34 2.410417 1_556
Ca5 O17 2.430806 1_555
Ca6 F1 2.286010 1_444
Ca6 F2 2.286010 1_555
Ca6 O43 2.438937 1_545
Ca6 O8 2.438937 1_454
Ca6 O4 2.455195 1_455
Ca6 O68 2.455195 1_544
Ca6 O16 2.858945 1_445
Ca6 O64 2.858945 1_554
Ca7 F1 2.289246 1_454
Ca7 O3 2.386605 1_555
Ca7 O52 2.396966 1_455
Ca7 O43 2.412508 1_555
Ca7 O17 2.417096 1_554
Ca7 O36 2.448248 1_554
Ca8 F0 2.289246 1_565
Ca8 O39 2.386605 1_555
Ca8 O37 2.396966 1_565
Ca8 O18 2.412508 1_555
Ca8 O61 2.417096 1_555
Ca8 O50 2.448248 1_555
Ca9 O31 2.383944 1_555
Ca9 O18 2.389559 1_555
Ca9 O5 2.400094 1_555
Ca9 O59 2.409916 1_555
Ca9 O61 2.410417 1_555
Ca9 O21 2.430806 1_555
Ca10 F2 2.313597 1_556
Ca10 O36 2.380714 1_555
Ca10 O68 2.384401 1_545
Ca10 O10 2.389850 1_555
Ca10 O3 2.447445 1_556
Ca10 O46 2.455884 1_546
Ca11 F3 2.313597 1_555
Ca11 O50 2.380714 1_555
Ca11 O31 2.384401 1_655
Ca11 O32 2.389850 1_555
Ca11 O39 2.447445 1_555
Ca11 O5 2.455884 1_655
Ca12 F3 2.286010 1_445
Ca12 F0 2.286010 1_555
Ca12 O18 2.438937 1_545
Ca12 O35 2.438937 1_455
Ca12 O31 2.455195 1_545
Ca12 O15 2.455195 1_455
Ca12 O19 2.858945 1_445
Ca12 O49 2.858945 1_555
Ca13 F3 2.289246 1_545
Ca13 O59 2.386605 1_555
Ca13 O50 2.396966 1_545
Ca13 O35 2.412508 1_555
Ca13 O21 2.417096 1_555
Ca13 O37 2.448248 1_555
O0 Si2 1.625534 1_555
O0 Si9 1.627641 1_555
O1 Si15 1.601580 1_555
O1 Ti2 1.959524 1_555
O2 Si0 1.625748 1_655
O2 Si10 1.629095 1_555
O3 Si16 1.620099 1_555
O4 Si2 1.614688 1_555
O5 Si0 1.619036 1_555
O6 Si23 1.625748 1_565
O6 Si11 1.629095 1_555
O7 Si3 1.606128 1_555
O7 Ti0 1.951495 1_555
O8 Si5 1.616838 1_555
O9 Si11 1.620099 1_555
O10 Si23 1.619036 1_555
O11 Si20 1.605514 1_555
O11 Ti1 1.952174 1_555
O12 Si8 1.627750 1_555
O12 Si20 1.635521 1_555
O13 Si0 1.603959 1_555
O13 Ti3 1.936072 1_555
O14 Si1 1.601580 1_555
O14 Ti3 1.959524 1_555
O15 Si7 1.614688 1_555
O16 Si2 1.634686 1_565
O16 Si1 1.640107 1_655
O17 Si20 1.622588 1_555
O18 Si15 1.616838 1_555
O19 Si18 1.634686 1_655
O19 Si19 1.640107 1_565
O20 Si8 1.601787 1_555
O20 Ti0 1.929705 1_555
O21 Si13 1.622588 1_555
O22 Si21 1.605514 1_555
O22 Ti0 1.952174 1_555
O23 Si17 1.625748 1_545
O23 Si16 1.629095 1_555
O24 Si12 1.627750 1_555
O24 Si21 1.635521 1_555
O25 Si18 1.625534 1_555
O25 Si21 1.627641 1_555
O26 Si18 1.597872 1_655
O26 Ti1 1.933888 1_555
O27 Si13 1.605514 1_555
O27 Ti2 1.952174 1_555
O28 Si2 1.597872 1_565
O28 Ti2 1.933888 1_555
O29 Si11 1.626270 1_555
O29 Si8 1.626499 1_655
O30 Si22 1.627750 1_555
O30 Si9 1.635521 1_555
O31 Si18 1.614688 1_555
O32 Si6 1.619036 1_555
O33 Si22 1.601787 1_555
O33 Ti2 1.929705 1_555
O34 Si9 1.622588 1_555
O35 Si19 1.616838 1_555
O36 Si8 1.615610 1_555
O37 Si14 1.615610 1_555
O38 Si4 1.597872 1_545
O38 Ti0 1.933888 1_555
O39 Si10 1.620099 1_555
O40 Si16 1.606128 1_555
O40 Ti3 1.951495 1_555
O41 Si10 1.606128 1_555
O41 Ti2 1.951495 1_555
O42 Si11 1.606128 1_555
O42 Ti1 1.951495 1_555
O43 Si1 1.616838 1_555
O44 Si6 1.603959 1_555
O44 Ti1 1.936072 1_555
O45 Si5 1.626876 1_555
O45 Si23 1.630143 1_555
O46 Si17 1.619036 1_555
O47 Si1 1.626876 1_555
O47 Si17 1.630143 1_555
O48 Si6 1.625748 1_455
O48 Si3 1.629095 1_555
O49 Si7 1.634686 1_455
O49 Si15 1.640107 1_545
O50 Si12 1.615610 1_555
O51 Si3 1.626270 1_555
O51 Si12 1.626499 1_545
O52 Si22 1.615610 1_555
O53 Si9 1.605514 1_555
O53 Ti3 1.952174 1_555
O54 Si7 1.597872 1_455
O54 Ti3 1.933888 1_555
O55 Si7 1.625534 1_555
O55 Si13 1.627641 1_555
O56 Si15 1.626876 1_555
O56 Si0 1.630143 1_555
O57 Si12 1.601787 1_555
O57 Ti1 1.929705 1_555
O58 Si14 1.627750 1_555
O58 Si13 1.635521 1_555
O59 Si3 1.620099 1_555
O60 Si19 1.626876 1_555
O60 Si6 1.630143 1_555
O61 Si21 1.622588 1_555
O62 Si23 1.603959 1_555
O62 Ti0 1.936072 1_555
O63 Si17 1.603959 1_555
O63 Ti2 1.936072 1_555
O64 Si4 1.634686 1_545
O64 Si5 1.640107 1_455
O65 Si19 1.601580 1_555
O65 Ti0 1.959524 1_555
O66 Si4 1.625534 1_555
O66 Si20 1.627641 1_555
O67 Si5 1.601580 1_555
O67 Ti1 1.959524 1_555
O68 Si4 1.614688 1_555
O69 Si16 1.626270 1_555
O69 Si22 1.626499 1_455
O70 Si14 1.601787 1_555
O70 Ti3 1.929705 1_555
O71 Si10 1.626270 1_555
O71 Si14 1.626499 1_565
F0 O37 2.894496 1_555
F0 O15 2.914811 1_455
F0 O18 2.949180 1_545
F1 O52 2.894496 1_556
F1 O4 2.914811 1_566
F1 O43 2.949180 1_656
F2 O36 2.894496 1_554
F2 O68 2.914811 1_544
F2 O8 2.949180 1_454
F3 O50 2.894496 1_555
F3 O31 2.914811 1_655
F3 O35 2.949180 1_565
