# generated using pymatgen
data_VH10SO10
_symmetry_space_group_name_H-M   'P 1'
_cell_length_a   6.26493600
_cell_length_b   7.48730000
_cell_length_c   9.24174100
_cell_angle_alpha   90.00000000
_cell_angle_beta   90.00000000
_cell_angle_gamma   90.00000000
_symmetry_Int_Tables_number   1
_chemical_formula_structural   VH10SO10
_chemical_formula_sum   'V2 H20 S2 O20'
_cell_volume   433.50655297
_cell_formula_units_Z   2
loop_
 _symmetry_equiv_pos_site_id
 _symmetry_equiv_pos_as_xyz
  1  'x, y, z'
loop_
 _atom_site_type_symbol
 _atom_site_label
 _atom_site_symmetry_multiplicity
 _atom_site_fract_x
 _atom_site_fract_y
 _atom_site_fract_z
 _atom_site_occupancy
  V  V0  1  0.50585100  0.50000000  0.71651500  1
  V  V1  1  0.00585100  0.00000000  0.28348500  1
  H  H0  1  0.09777600  0.50000000  0.88676100  1
  H  H1  1  0.59777600  0.00000000  0.11323900  1
  H  H2  1  0.04630100  0.50000000  0.72216100  1
  H  H3  1  0.54630100  0.00000000  0.27783900  1
  H  H4  1  0.51144800  0.67796500  0.97156800  1
  H  H5  1  0.51144800  0.32203500  0.97156800  1
  H  H6  1  0.01144800  0.82203500  0.02843200  1
  H  H7  1  0.01144800  0.17796500  0.02843200  1
  H  H8  1  0.69441500  0.75372600  0.86045100  1
  H  H9  1  0.69441500  0.24627400  0.86045100  1
  H  H10  1  0.19441500  0.74627400  0.13954900  1
  H  H11  1  0.19441500  0.25372600  0.13954900  1
  H  H12  1  0.30275300  0.80001400  0.62919100  1
  H  H13  1  0.30275300  0.19998600  0.62919100  1
  H  H14  1  0.80275300  0.69998600  0.37080900  1
  H  H15  1  0.80275300  0.30001400  0.37080900  1
  H  H16  1  0.32042200  0.65825300  0.49122800  1
  H  H17  1  0.32042200  0.34174700  0.49122800  1
  H  H18  1  0.82042200  0.84174700  0.50877200  1
  H  H19  1  0.82042200  0.15825300  0.50877200  1
  S  S0  1  0.46215100  0.50000000  0.23172400  1
  S  S1  1  0.96215100  0.00000000  0.76827600  1
  O  O0  1  0.75106300  0.50000000  0.65628100  1
  O  O1  1  0.25106300  0.00000000  0.34371900  1
  O  O2  1  0.16538200  0.50000000  0.79206700  1
  O  O3  1  0.66538200  0.00000000  0.20793300  1
  O  O4  1  0.54810900  0.69664200  0.86696100  1
  O  O5  1  0.54810900  0.30335800  0.86696100  1
  O  O6  1  0.04810900  0.80335800  0.13303900  1
  O  O7  1  0.04810900  0.19664200  0.13303900  1
  O  O8  1  0.37883000  0.69597700  0.58661900  1
  O  O9  1  0.37883000  0.30402300  0.58661900  1
  O  O10  1  0.87883000  0.80402300  0.41338100  1
  O  O11  1  0.87883000  0.19597700  0.41338100  1
  O  O12  1  0.42517700  0.66283100  0.13860900  1
  O  O13  1  0.42517700  0.33716900  0.13860900  1
  O  O14  1  0.92517700  0.83716900  0.86139100  1
  O  O15  1  0.92517700  0.16283100  0.86139100  1
  O  O16  1  0.30311200  0.50000000  0.35076000  1
  O  O17  1  0.80311200  0.00000000  0.64924000  1
  O  O18  1  0.68405800  0.50000000  0.28616300  1
  O  O19  1  0.18405800  0.00000000  0.71383700  1
loop_
_geom_bond_atom_site_label_1
_geom_bond_atom_site_label_2
_geom_bond_distance
_geom_bond_site_symmetry_2
H0 O2 0.972244 1_555
H1 O3 0.972244 1_555
H2 O2 0.986890 1_555
H2 O0 1.947277 1_455
H3 O3 0.986890 1_555
H3 O1 1.947277 1_555
H4 O4 1.003451 1_555
H4 O12 1.639550 1_556
H5 O5 1.003451 1_555
H5 O13 1.639550 1_556
H6 O6 1.003451 1_555
H6 O14 1.639550 1_454
H7 O7 1.003451 1_555
H7 O15 1.639550 1_454
H8 O4 1.013137 1_555
H8 O14 1.574954 1_555
H9 O5 1.013137 1_555
H9 O15 1.574954 1_555
H10 O6 1.013137 1_555
H10 O12 1.574954 1_555
H11 O7 1.013137 1_555
H11 O13 1.574954 1_555
H12 O8 0.994350 1_555
H12 O19 1.845805 1_565
H13 O9 0.994350 1_555
H13 O19 1.845805 1_555
H14 O10 0.994350 1_555
H14 O18 1.845805 1_555
H15 O11 0.994350 1_555
H15 O18 1.845805 1_555
H16 O8 0.995419 1_555
H16 O16 1.760955 1_555
H17 O9 0.995419 1_555
H17 O16 1.760955 1_555
H18 O10 0.995419 1_555
H18 O17 1.760955 1_565
H19 O11 0.995419 1_555
H19 O17 1.760955 1_555
O0 V0 1.633984 1_555
O1 V1 1.633984 1_555
O2 V0 2.244390 1_555
O3 V1 2.244390 1_655
O4 V0 2.042296 1_555
O5 V0 2.042296 1_555
O6 V1 2.042296 1_565
O7 V1 2.042296 1_555
O8 V0 2.056079 1_555
O9 V0 2.056079 1_555
O10 V1 2.056079 1_665
O11 V1 2.056079 1_655
O12 S0 1.510151 1_555
O13 S0 1.510151 1_555
O14 S1 1.510151 1_565
O15 S1 1.510151 1_555
O16 S0 1.484241 1_555
O17 S1 1.484241 1_555
O18 S0 1.478468 1_555
O19 S1 1.478468 1_455
