# generated using pymatgen
data_Eu3(B3Rh4)2
_symmetry_space_group_name_H-M   'P 1'
_cell_length_a   9.90627377
_cell_length_b   9.03364300
_cell_length_c   5.65754989
_cell_angle_alpha   81.28925177
_cell_angle_beta   64.34176006
_cell_angle_gamma   34.36898817
_symmetry_Int_Tables_number   1
_chemical_formula_structural   Eu3(B3Rh4)2
_chemical_formula_sum   'Eu3 B6 Rh8'
_cell_volume   235.58261490
_cell_formula_units_Z   1
loop_
 _symmetry_equiv_pos_site_id
 _symmetry_equiv_pos_as_xyz
  1  'x, y, z'
loop_
 _atom_site_type_symbol
 _atom_site_label
 _atom_site_symmetry_multiplicity
 _atom_site_fract_x
 _atom_site_fract_y
 _atom_site_fract_z
 _atom_site_occupancy
  Eu  Eu0  1  0.31686500  0.31686500  0.68313500  1
  Eu  Eu1  1  0.50000000  0.50000000  0.50000000  1
  Eu  Eu2  1  0.68313500  0.68313500  0.31686500  1
  B  B0  1  0.83497400  0.16502600  0.83497400  1
  B  B1  1  0.66810000  0.99028500  0.00971500  1
  B  B2  1  0.99028500  0.66810000  0.33190000  1
  B  B3  1  0.00971500  0.33190000  0.66810000  1
  B  B4  1  0.33190000  0.00971500  0.99028500  1
  B  B5  1  0.16502600  0.83497400  0.16502600  1
  Rh  Rh0  1  0.91526600  0.91526600  0.58473400  1
  Rh  Rh1  1  0.08473400  0.08473400  0.41526600  1
  Rh  Rh2  1  0.75000000  0.75000000  0.75000000  1
  Rh  Rh3  1  0.08729300  0.08729300  0.91270700  1
  Rh  Rh4  1  0.91270700  0.91270700  0.08729300  1
  Rh  Rh5  1  0.41526600  0.41526600  0.08473400  1
  Rh  Rh6  1  0.58473400  0.58473400  0.91526600  1
  Rh  Rh7  1  0.25000000  0.25000000  0.25000000  1
loop_
_geom_bond_atom_site_label_1
_geom_bond_atom_site_label_2
_geom_bond_distance
_geom_bond_site_symmetry_2
Eu0 Rh7 3.053355 1_555
Eu0 Rh2 3.053355 1_455
Eu0 Rh2 3.053355 1_545
Eu0 Rh7 3.053355 1_556
Eu0 Eu1 3.147931 1_555
Eu0 Rh4 3.233298 1_545
Eu0 Rh4 3.233298 1_456
Eu0 Rh5 3.295891 1_556
Eu0 Rh0 3.295891 1_545
Eu0 Rh0 3.295891 1_455
Eu0 Rh5 3.295891 1_555
Eu0 Eu2 3.608904 1_545
Eu0 Eu2 3.608904 1_456
Eu1 Eu2 3.147931 1_555
Eu1 Rh3 3.160954 1_565
Eu1 Rh3 3.160954 1_654
Eu1 Rh4 3.160954 1_456
Eu1 Rh4 3.160954 1_545
Eu1 Rh1 3.181725 1_655
Eu1 Rh6 3.181725 1_555
Eu1 Rh1 3.181725 1_565
Eu1 Rh5 3.181725 1_556
Eu1 Rh6 3.181725 1_554
Eu1 Rh0 3.181725 1_545
Eu1 Rh0 3.181725 1_455
Eu1 Rh5 3.181725 1_555
Eu2 Rh2 3.053355 1_554
Eu2 Rh7 3.053355 1_565
Eu2 Rh7 3.053355 1_655
Eu2 Rh2 3.053355 1_555
Eu2 Rh3 3.233298 1_654
Eu2 Rh3 3.233298 1_565
Eu2 Rh6 3.295891 1_554
Eu2 Rh6 3.295891 1_555
Eu2 Rh1 3.295891 1_655
Eu2 Rh1 3.295891 1_565
B0 Rh1 2.181135 1_655
B0 Rh6 2.181135 1_555
B0 Rh5 2.181135 1_556
B0 Rh0 2.181135 1_545
B0 Rh3 2.212478 1_655
B0 Rh4 2.212478 1_546
B0 Eu1 3.222382 1_645
B0 Eu1 3.222382 1_556
B0 Eu1 3.300316 1_555
B1 Rh2 2.134325 1_554
B1 Rh7 2.134325 1_565
B1 Rh4 2.140057 1_555
B1 Rh5 2.211639 1_565
B1 Rh0 2.211639 1_554
B1 Eu2 2.970216 1_555
B1 Eu0 3.210004 1_565
B1 Eu0 3.210004 1_654
B2 Rh2 2.134325 1_555
B2 Rh7 2.134325 1_655
B2 Rh4 2.140057 1_555
B2 Rh0 2.211639 1_555
B2 Rh5 2.211639 1_655
B2 Eu2 2.970216 1_555
B2 Eu0 3.210004 1_565
B2 Eu0 3.210004 1_654
B3 Rh2 2.134325 1_455
B3 Rh7 2.134325 1_555
B3 Rh3 2.140057 1_555
B3 Rh6 2.211639 1_455
B3 Rh1 2.211639 1_555
B3 Eu0 2.970216 1_555
B3 Eu2 3.210004 1_456
B3 Eu2 3.210004 1_545
B4 Rh2 2.134325 1_545
B4 Rh7 2.134325 1_556
B4 Rh3 2.140057 1_555
B4 Rh6 2.211639 1_545
B4 Rh1 2.211639 1_556
B4 Eu0 2.970216 1_555
B4 Eu2 3.210004 1_456
B4 Eu2 3.210004 1_545
B5 Rh1 2.181135 1_565
B5 Rh6 2.181135 1_554
B5 Rh0 2.181135 1_455
B5 Rh5 2.181135 1_555
B5 Rh3 2.212478 1_564
B5 Rh4 2.212478 1_455
B5 Eu1 3.222382 1_465
B5 Eu1 3.222382 1_554
B5 Eu1 3.300316 1_555
Rh0 Rh5 2.782114 1_566
Rh0 Rh5 2.782114 1_655
Rh1 Rh6 2.782114 1_544
Rh1 Rh6 2.782114 1_455
