# generated using pymatgen
data_Y2Al9Si27(N15O)3
_symmetry_space_group_name_H-M   'P 1'
_cell_length_a   7.89791000
_cell_length_b   7.92473089
_cell_length_c   17.23592894
_cell_angle_alpha   89.95963104
_cell_angle_beta   90.18236958
_cell_angle_gamma   119.64100739
_symmetry_Int_Tables_number   1
_chemical_formula_structural   Y2Al9Si27(N15O)3
_chemical_formula_sum   'Y2 Al9 Si27 N45 O3'
_cell_volume   937.60369734
_cell_formula_units_Z   1
loop_
 _symmetry_equiv_pos_site_id
 _symmetry_equiv_pos_as_xyz
  1  'x, y, z'
loop_
 _atom_site_type_symbol
 _atom_site_label
 _atom_site_symmetry_multiplicity
 _atom_site_fract_x
 _atom_site_fract_y
 _atom_site_fract_z
 _atom_site_occupancy
  Y  Y0  1  0.32277100  0.65229700  0.61066200  1
  Y  Y1  1  0.34247200  0.67307500  0.26565900  1
  Al  Al0  1  0.90331100  0.48125100  0.61825100  1
  Al  Al1  1  0.58636900  0.09698000  0.28086500  1
  Al  Al2  1  0.42917600  0.50417700  0.10894400  1
  Al  Al3  1  0.08122200  0.56425500  0.78308600  1
  Al  Al4  1  0.07200100  0.56040200  0.44560100  1
  Al  Al5  1  0.07935200  0.57227300  0.10696900  1
  Al  Al6  1  0.07674200  0.24567000  0.34749500  1
  Al  Al7  1  0.07630900  0.24411800  0.68329800  1
  Al  Al8  1  0.08745700  0.25594200  0.01038500  1
  Si  Si0  1  0.83283700  0.76123600  0.85260500  1
  Si  Si1  1  0.83022900  0.75478200  0.51806500  1
  Si  Si2  1  0.82482800  0.76344300  0.18209400  1
  Si  Si3  1  0.91511200  0.48657100  0.94664100  1
  Si  Si4  1  0.90966100  0.48684500  0.28035200  1
  Si  Si5  1  0.91069400  0.17314300  0.84653000  1
  Si  Si6  1  0.91918400  0.17386800  0.51508500  1
  Si  Si7  1  0.91553900  0.17472300  0.17653700  1
  Si  Si8  1  0.51242600  0.43255900  0.94399200  1
  Si  Si9  1  0.51385400  0.41870900  0.61420500  1
  Si  Si10  1  0.51667200  0.42612700  0.28095700  1
  Si  Si11  1  0.56980200  0.08304400  0.94439400  1
  Si  Si12  1  0.57246200  0.08268100  0.61394500  1
  Si  Si13  1  0.75410500  0.82711100  0.68576100  1
  Si  Si14  1  0.75014800  0.82550600  0.35301300  1
  Si  Si15  1  0.74936500  0.83316100  0.01583800  1
  Si  Si16  1  0.48580400  0.91487600  0.78237000  1
  Si  Si17  1  0.48921200  0.91524500  0.44856700  1
  Si  Si18  1  0.49107300  0.92488700  0.10983000  1
  Si  Si19  1  0.25609600  0.09163900  0.84928400  1
  Si  Si20  1  0.25103800  0.07942000  0.51588500  1
  Si  Si21  1  0.25296500  0.08369800  0.18297800  1
  Si  Si22  1  0.16799200  0.91318600  0.68519900  1
  Si  Si23  1  0.16278900  0.91553200  0.01284200  1
  Si  Si24  1  0.16715700  0.91232200  0.34775000  1
  Si  Si25  1  0.43957200  0.51590500  0.78025300  1
  Si  Si26  1  0.43493200  0.50936900  0.44707100  1
  N  N0  1  0.99688300  0.98374400  0.67932500  1
  N  N1  1  0.99453600  0.98194600  0.35011300  1
  N  N2  1  0.68458900  0.68274900  0.93265100  1
  N  N3  1  0.67580300  0.67394500  0.60068600  1
  N  N4  1  0.66957900  0.68334000  0.26673100  1
  N  N5  1  0.99583800  0.32858100  0.92425700  1
  N  N6  1  0.01738900  0.33460600  0.59225300  1
  N  N7  1  0.00474500  0.33727500  0.25948400  1
  N  N8  1  0.66741300  0.33465200  0.95773000  1
  N  N9  1  0.65144100  0.31749300  0.63595100  1
  N  N10  1  0.67491700  0.34996100  0.30653400  1
  N  N11  1  0.39616400  0.34560800  0.85107600  1
  N  N12  1  0.39062100  0.33900900  0.52287600  1
  N  N13  1  0.38746000  0.33699000  0.19597800  1
  N  N14  1  0.65308400  0.03915600  0.85496800  1
  N  N15  1  0.65545800  0.03837300  0.52539400  1
  N  N16  1  0.65924700  0.04131800  0.18627600  1
  N  N17  1  0.59869300  0.93605500  0.68606200  1
  N  N18  1  0.59667300  0.92823400  0.35843500  1
  N  N19  1  0.60597900  0.95247000  0.01968900  1
  N  N20  1  0.69199200  0.68298700  0.76793000  1
  N  N21  1  0.68533300  0.67730100  0.43655800  1
  N  N22  1  0.69273600  0.69435900  0.10028800  1
  N  N23  1  0.32049300  0.00820400  0.93208100  1
  N  N24  1  0.31809700  0.98758300  0.59873300  1
  N  N25  1  0.31408600  0.98644700  0.26596700  1
  N  N26  1  0.31750900  0.99845300  0.76728100  1
  N  N27  1  0.31217800  0.98854400  0.43463200  1
  N  N28  1  0.31037800  0.99620000  0.09955200  1
  N  N29  1  0.34633400  0.66864500  0.79554400  1
  N  N30  1  0.34012100  0.68150500  0.13821000  1
  N  N31  1  0.34110200  0.66524000  0.47459500  1
  N  N32  1  0.00329500  0.00634700  0.84714100  1
  N  N33  1  0.00082100  0.99954500  0.51705500  1
  N  N34  1  0.00248400  0.00593300  0.18577100  1
  N  N35  1  0.99435000  0.99078300  0.01183200  1
  N  N36  1  0.35436200  0.41388600  0.35453000  1
  N  N37  1  0.35598300  0.41095500  0.68559000  1
  N  N38  1  0.35312300  0.39164800  0.01502800  1
  N  N39  1  0.07288600  0.66652900  0.68436400  1
  N  N40  1  0.06759700  0.65879500  0.34729400  1
  N  N41  1  0.04628300  0.66277200  0.01401300  1
  N  N42  1  0.97637800  0.30651900  0.76437700  1
  N  N43  1  0.99739800  0.31664400  0.09879100  1
  N  N44  1  0.98148500  0.30382100  0.43296000  1
  O  O0  1  0.95095500  0.62444900  0.85803300  1
  O  O1  1  0.94857400  0.62347100  0.52307000  1
  O  O2  1  0.94109300  0.62024500  0.19458600  1
loop_
_geom_bond_atom_site_label_1
_geom_bond_atom_site_label_2
_geom_bond_distance
_geom_bond_site_symmetry_2
Al0 N9 1.784418 1_555
Al0 N39 1.815382 1_655
Al0 N6 1.844464 1_655
Al0 O1 1.921458 1_555
Al1 N10 1.821139 1_555
Al1 N16 1.855254 1_555
Al1 N25 1.895076 1_545
Al1 N18 1.920125 1_545
Al2 N38 1.800650 1_555
Al2 N22 1.877558 1_555
Al2 N13 1.919076 1_555
Al2 N30 1.924801 1_555
Al3 N42 1.813214 1_455
Al3 N29 1.843548 1_555
Al3 O0 1.857289 1_455
Al3 N39 1.899127 1_555
Al4 N44 1.804112 1_455
Al4 O1 1.863896 1_455
Al4 N40 1.872118 1_555
Al4 N31 1.924657 1_555
Al5 N43 1.801528 1_455
Al5 N41 1.824977 1_555
Al5 N30 1.873797 1_555
Al5 O2 2.009825 1_455
Al6 N44 1.816381 1_455
Al6 N1 1.857236 1_445
Al6 N7 1.884870 1_555
Al6 N36 1.925292 1_555
Al7 N42 1.792881 1_455
Al7 N0 1.837232 1_445
Al7 N6 1.875402 1_555
Al7 N37 1.933769 1_555
Al8 N38 1.825523 1_555
Al8 N43 1.845409 1_455
Al8 N35 1.851627 1_445
Al8 N5 1.860821 1_454
N0 Si13 1.696056 1_555
N0 Si22 1.701667 1_655
N1 Si14 1.702529 1_555
N1 Si24 1.705647 1_655
N2 Si0 1.717549 1_555
N2 Si15 1.769997 1_556
N2 Si8 1.775574 1_555
N3 Si1 1.778420 1_555
N3 Si9 1.795479 1_555
N3 Si13 1.805598 1_555
N3 Y0 2.713488 1_555
N4 Si14 1.781304 1_555
N4 Si10 1.799923 1_555
N4 Si2 1.809606 1_555
N4 Y1 2.544221 1_555
N5 Si3 1.707259 1_555
N5 Si5 1.715106 1_555
N6 Si6 1.735455 1_455
N6 Y0 2.499262 1_555
N7 Si4 1.726563 1_455
N7 Si7 1.816099 1_455
N7 Y1 2.680531 1_555
N8 Si3 1.727862 1_555
N8 Si8 1.758902 1_555
N8 Si11 1.761239 1_555
N9 Si9 1.680414 1_555
N9 Si12 1.687304 1_555
N10 Si4 1.683149 1_555
N10 Si10 1.692032 1_555
N11 Si25 1.723847 1_555
N11 Si19 1.753010 1_555
N11 Si8 1.802522 1_555
N12 Si26 1.784753 1_555
N12 Si9 1.791011 1_555
N12 Si20 1.793906 1_555
N13 Si10 1.721814 1_555
N13 Si21 1.760054 1_555
N14 Si16 1.727823 1_545
N14 Si5 1.775648 1_555
N14 Si11 1.778433 1_555
N15 Si12 1.765564 1_555
N15 Si17 1.775680 1_545
N15 Si6 1.820116 1_555
N16 Si7 1.768712 1_555
N16 Si18 1.769182 1_545
N17 Si12 1.781176 1_565
N17 Si13 1.816650 1_555
N17 Si16 1.854608 1_555
N17 Y0 2.575563 1_555
N18 Si17 1.751017 1_555
N18 Si14 1.765681 1_555
N18 Y1 2.577816 1_555
N19 Si18 1.759978 1_555
N19 Si11 1.767708 1_564
N19 Si15 1.800125 1_555
N20 Si13 1.731726 1_555
N20 Si0 1.749448 1_555
N20 Si25 1.778771 1_555
N21 Si1 1.719351 1_555
N21 Si26 1.764556 1_555
N21 Si14 1.767092 1_555
N22 Si2 1.674212 1_555
N22 Si15 1.744688 1_555
N23 Si19 1.749031 1_555
N23 Si11 1.765289 1_555
N23 Si23 1.770072 1_546
N24 Si12 1.781003 1_565
N24 Si20 1.795615 1_565
N24 Si22 1.814597 1_555
N24 Y0 2.683237 1_555
N25 Si24 1.735987 1_555
N25 Si21 1.798624 1_565
N25 Y1 2.601583 1_555
N26 Si22 1.747584 1_555
N26 Si19 1.771559 1_565
N26 Si16 1.772389 1_555
N27 Si20 1.750094 1_565
N27 Si17 1.775127 1_555
N27 Si24 1.795894 1_555
N28 Si21 1.752310 1_565
N28 Si18 1.784211 1_555
N28 Si23 1.803941 1_555
N29 Si16 1.716816 1_555
N29 Si25 1.720518 1_555
N30 Si18 1.763118 1_555
N30 Y1 2.197969 1_555
N31 Si17 1.790130 1_555
N31 Si26 1.791238 1_555
N31 Y0 2.349206 1_555
N32 Si0 1.734447 1_445
N32 Si19 1.763332 1_555
N32 Si5 1.799532 1_455
N33 Si1 1.730052 1_455
N33 Si20 1.751954 1_565
N33 Si6 1.790568 1_465
N34 Si2 1.731517 1_445
N34 Si21 1.757940 1_555
N34 Si7 1.787069 1_455
N35 Si23 1.705933 1_655
N35 Si15 1.708480 1_555
N36 Si26 1.743725 1_555
N36 Si10 1.774247 1_555
N36 Y1 2.599907 1_555
N37 Si9 1.733822 1_555
N37 Si25 1.800458 1_555
N37 Y0 2.425937 1_555
N38 Si8 1.671209 1_554
N39 Si22 1.712577 1_555
N39 Y0 2.399530 1_555
N40 Si4 1.748093 1_455
N40 Si24 1.758498 1_555
N40 Y1 2.545938 1_555
N41 Si3 1.713251 1_454
N41 Si23 1.742498 1_555
N42 Si5 1.688644 1_555
N43 Si7 1.662148 1_555
N44 Si6 1.675555 1_555
O0 Si0 1.747467 1_555
O0 Si3 1.816846 1_555
O1 Si1 1.710362 1_555
O2 Si4 1.762103 1_555
O2 Si2 1.790651 1_555
