# generated using pymatgen
data_Ce2InNi2
_symmetry_space_group_name_H-M   'P 1'
_cell_length_a   7.23572698
_cell_length_b   14.99828963
_cell_length_c   14.99828963
_cell_angle_alpha   90.00743096
_cell_angle_beta   90.00000000
_cell_angle_gamma   90.00000000
_symmetry_Int_Tables_number   1
_chemical_formula_structural   Ce2InNi2
_chemical_formula_sum   'Ce32 In16 Ni32'
_cell_volume   1627.66730520
_cell_formula_units_Z   16
loop_
 _symmetry_equiv_pos_site_id
 _symmetry_equiv_pos_as_xyz
  1  'x, y, z'
loop_
 _atom_site_type_symbol
 _atom_site_label
 _atom_site_symmetry_multiplicity
 _atom_site_fract_x
 _atom_site_fract_y
 _atom_site_fract_z
 _atom_site_occupancy
  Ce  Ce0_0  1  0.25000000  0.08601305  0.33601305  1
  Ce  Ce0_1  1  0.25000000  0.08601305  0.83601305  1
  Ce  Ce0_2  1  0.25000000  0.58601305  0.33601305  1
  Ce  Ce0_3  1  0.25000000  0.58601305  0.83601305  1
  Ce  Ce0_4  1  0.75000000  0.08601305  0.33601305  1
  Ce  Ce0_5  1  0.75000000  0.08601305  0.83601305  1
  Ce  Ce0_6  1  0.75000000  0.58601305  0.33601305  1
  Ce  Ce0_7  1  0.75000000  0.58601305  0.83601305  1
  Ce  Ce1_0  1  0.25000000  0.16388095  0.08611905  1
  Ce  Ce1_1  1  0.25000000  0.16388095  0.58611905  1
  Ce  Ce1_2  1  0.25000000  0.66388095  0.08611905  1
  Ce  Ce1_3  1  0.25000000  0.66388096  0.58611905  1
  Ce  Ce1_4  1  0.75000000  0.16388095  0.08611905  1
  Ce  Ce1_5  1  0.75000000  0.16388095  0.58611905  1
  Ce  Ce1_6  1  0.75000000  0.66388095  0.08611905  1
  Ce  Ce1_7  1  0.75000000  0.66388096  0.58611905  1
  Ce  Ce2_0  1  0.25000000  0.33611905  0.41388095  1
  Ce  Ce2_1  1  0.25000000  0.33611905  0.91388095  1
  Ce  Ce2_2  1  0.25000000  0.83611905  0.41388095  1
  Ce  Ce2_3  1  0.25000000  0.83611905  0.91388095  1
  Ce  Ce2_4  1  0.75000000  0.33611905  0.41388095  1
  Ce  Ce2_5  1  0.75000000  0.33611905  0.91388095  1
  Ce  Ce2_6  1  0.75000000  0.83611905  0.41388095  1
  Ce  Ce2_7  1  0.75000000  0.83611905  0.91388095  1
  Ce  Ce3_0  1  0.25000000  0.41398695  0.16398695  1
  Ce  Ce3_1  1  0.25000000  0.41398695  0.66398695  1
  Ce  Ce3_2  1  0.25000000  0.91398695  0.16398695  1
  Ce  Ce3_3  1  0.25000000  0.91398695  0.66398695  1
  Ce  Ce3_4  1  0.75000000  0.41398695  0.16398695  1
  Ce  Ce3_5  1  0.75000000  0.41398695  0.66398695  1
  Ce  Ce3_6  1  0.75000000  0.91398695  0.16398695  1
  Ce  Ce3_7  1  0.75000000  0.91398695  0.66398695  1
  In  In0_0  1  0.00000000  0.00000000  0.00000000  1
  In  In0_1  1  0.00000000  0.00000000  0.50000000  1
  In  In0_2  1  0.00000000  0.50000000  0.00000000  1
  In  In0_3  1  0.00000000  0.50000000  0.50000000  1
  In  In0_4  1  0.50000000  0.00000000  0.00000000  1
  In  In0_5  1  0.50000000  0.00000000  0.50000000  1
  In  In0_6  1  0.50000000  0.50000000  0.00000000  1
  In  In0_7  1  0.50000000  0.50000000  0.50000000  1
  In  In1_0  1  0.00000000  0.25000000  0.25000000  1
  In  In1_1  1  0.00000000  0.25000000  0.75000000  1
  In  In1_2  1  0.00000000  0.75000000  0.25000000  1
  In  In1_3  1  0.00000000  0.75000000  0.75000000  1
  In  In1_4  1  0.50000000  0.25000000  0.25000000  1
  In  In1_5  1  0.50000000  0.25000000  0.75000000  1
  In  In1_6  1  0.50000000  0.75000000  0.25000000  1
  In  In1_7  1  0.50000000  0.75000000  0.75000000  1
  Ni  Ni0_0  1  0.00000000  0.18706607  0.43706607  1
  Ni  Ni0_1  1  0.00000000  0.18706607  0.93706607  1
  Ni  Ni0_2  1  0.00000000  0.68706607  0.43706607  1
  Ni  Ni0_3  1  0.00000000  0.68706607  0.93706607  1
  Ni  Ni0_4  1  0.50000000  0.18706607  0.43706607  1
  Ni  Ni0_5  1  0.50000000  0.18706607  0.93706607  1
  Ni  Ni0_6  1  0.50000000  0.68706607  0.43706607  1
  Ni  Ni0_7  1  0.50000000  0.68706607  0.93706607  1
  Ni  Ni1_0  1  0.00000000  0.43721694  0.31278306  1
  Ni  Ni1_1  1  0.00000000  0.43721694  0.81278306  1
  Ni  Ni1_2  1  0.00000000  0.93721694  0.31278306  1
  Ni  Ni1_3  1  0.00000000  0.93721694  0.81278306  1
  Ni  Ni1_4  1  0.50000000  0.43721694  0.31278306  1
  Ni  Ni1_5  1  0.50000000  0.43721694  0.81278306  1
  Ni  Ni1_6  1  0.50000000  0.93721694  0.31278306  1
  Ni  Ni1_7  1  0.50000000  0.93721694  0.81278306  1
  Ni  Ni2_0  1  0.00000000  0.31293393  0.06293393  1
  Ni  Ni2_1  1  0.00000000  0.31293393  0.56293393  1
  Ni  Ni2_2  1  0.00000000  0.81293393  0.06293393  1
  Ni  Ni2_3  1  0.00000000  0.81293393  0.56293393  1
  Ni  Ni2_4  1  0.50000000  0.31293393  0.06293393  1
  Ni  Ni2_5  1  0.50000000  0.31293393  0.56293393  1
  Ni  Ni2_6  1  0.50000000  0.81293393  0.06293393  1
  Ni  Ni2_7  1  0.50000000  0.81293393  0.56293393  1
  Ni  Ni3_0  1  0.00000000  0.06278306  0.18721694  1
  Ni  Ni3_1  1  0.00000000  0.06278306  0.68721694  1
  Ni  Ni3_2  1  0.00000000  0.56278306  0.18721694  1
  Ni  Ni3_3  1  0.00000000  0.56278306  0.68721694  1
  Ni  Ni3_4  1  0.50000000  0.06278306  0.18721694  1
  Ni  Ni3_5  1  0.50000000  0.06278306  0.68721694  1
  Ni  Ni3_6  1  0.50000000  0.56278306  0.18721694  1
  Ni  Ni3_7  1  0.50000000  0.56278306  0.68721694  1
loop_
_geom_bond_atom_site_label_1
_geom_bond_atom_site_label_2
_geom_bond_distance
_geom_bond_site_symmetry_2
Ce0_0 Ni0_4 2.804614 1_555
Ce0_0 Ni0_0 2.804614 1_555
Ce0_0 Ni3_4 2.893760 1_555
Ce0_0 Ni3_0 2.893760 1_555
Ce0_0 Ni1_2 2.893760 1_545
Ce0_0 Ni1_6 2.893760 1_545
Ce0_0 In0_1 3.314595 1_555
Ce0_0 In0_5 3.314595 1_555
Ce0_0 In1_0 3.314595 1_555
Ce0_0 In1_4 3.314595 1_555
Ce0_1 Ni0_1 2.804614 1_555
Ce0_1 Ni0_5 2.804614 1_555
Ce0_1 Ni1_3 2.893760 1_545
Ce0_1 Ni1_7 2.893760 1_545
Ce0_1 Ni3_1 2.893760 1_555
Ce0_1 Ni3_5 2.893760 1_555
Ce0_1 In1_1 3.314595 1_555
Ce0_1 In0_0 3.314595 1_556
Ce0_1 In1_5 3.314595 1_555
Ce0_1 In0_4 3.314595 1_556
Ce0_2 Ni0_6 2.804614 1_555
Ce0_2 Ni0_2 2.804614 1_555
Ce0_2 Ni3_2 2.893760 1_555
Ce0_2 Ni3_6 2.893760 1_555
Ce0_2 Ni1_0 2.893760 1_555
Ce0_2 Ni1_4 2.893760 1_555
Ce0_2 In1_2 3.314595 1_555
Ce0_2 In1_6 3.314595 1_555
Ce0_2 In0_3 3.314595 1_555
Ce0_2 In0_7 3.314595 1_555
Ce0_3 Ni0_7 2.804614 1_555
Ce0_3 Ni0_3 2.804614 1_555
Ce0_3 Ni1_5 2.893760 1_555
Ce0_3 Ni1_1 2.893760 1_555
Ce0_3 Ni3_7 2.893760 1_555
Ce0_3 Ni3_3 2.893760 1_555
Ce0_3 In0_6 3.314595 1_556
Ce0_3 In1_7 3.314595 1_555
Ce0_3 In1_3 3.314595 1_555
Ce0_3 In0_2 3.314595 1_556
Ce0_4 Ni0_0 2.804614 1_655
Ce0_4 Ni0_4 2.804614 1_555
Ce0_4 Ni3_0 2.893760 1_655
Ce0_4 Ni1_2 2.893760 1_645
Ce0_4 Ni3_4 2.893760 1_555
Ce0_4 Ni1_6 2.893760 1_545
Ce0_4 In0_1 3.314595 1_655
Ce0_4 In1_0 3.314595 1_655
Ce0_4 In0_5 3.314595 1_555
Ce0_4 In1_4 3.314595 1_555
Ce0_5 Ni0_1 2.804614 1_655
Ce0_5 Ni0_5 2.804614 1_555
Ce0_5 Ni1_3 2.893760 1_645
Ce0_5 Ni1_7 2.893760 1_545
Ce0_5 Ni3_1 2.893760 1_655
Ce0_5 Ni3_5 2.893760 1_555
Ce0_5 In1_1 3.314595 1_655
Ce0_5 In0_0 3.314595 1_656
Ce0_5 In1_5 3.314595 1_555
Ce0_5 In0_4 3.314595 1_556
Ce0_6 Ni0_2 2.804614 1_655
Ce0_6 Ni0_6 2.804614 1_555
Ce0_6 Ni3_2 2.893760 1_655
Ce0_6 Ni1_0 2.893760 1_655
Ce0_6 Ni3_6 2.893760 1_555
Ce0_6 Ni1_4 2.893760 1_555
Ce0_6 In1_2 3.314595 1_655
Ce0_6 In1_6 3.314595 1_555
Ce0_6 In0_3 3.314595 1_655
Ce0_6 In0_7 3.314595 1_555
Ce0_7 Ni0_3 2.804614 1_655
Ce0_7 Ni0_7 2.804614 1_555
Ce0_7 Ni1_1 2.893760 1_655
Ce0_7 Ni3_3 2.893760 1_655
Ce0_7 Ni1_5 2.893760 1_555
Ce0_7 Ni3_7 2.893760 1_555
Ce0_7 In1_3 3.314595 1_655
Ce0_7 In0_2 3.314595 1_656
Ce0_7 In1_7 3.314595 1_555
Ce0_7 In0_6 3.314595 1_556
Ce1_0 Ni3_0 2.805554 1_555
Ce1_0 Ni3_4 2.805554 1_555
Ce1_0 Ni0_1 2.896721 1_554
Ce1_0 Ni0_5 2.896721 1_554
Ce1_0 Ni2_0 2.896721 1_555
Ce1_0 Ni2_4 2.896721 1_555
Ce1_0 In1_0 3.313786 1_555
Ce1_0 In1_4 3.313786 1_555
Ce1_0 In0_0 3.313786 1_555
Ce1_0 In0_4 3.313786 1_555
Ce1_1 Ni3_1 2.805554 1_555
Ce1_1 Ni3_5 2.805554 1_555
Ce1_1 Ni2_5 2.896721 1_555
Ce1_1 Ni0_4 2.896721 1_555
Ce1_1 Ni0_0 2.896721 1_555
Ce1_1 Ni2_1 2.896721 1_555
Ce1_1 In1_5 3.313786 1_555
Ce1_1 In1_1 3.313786 1_555
Ce1_1 In0_5 3.313786 1_555
Ce1_1 In0_1 3.313786 1_555
Ce1_2 Ni3_2 2.805554 1_555
Ce1_2 Ni3_6 2.805554 1_555
Ce1_2 Ni0_3 2.896721 1_554
Ce1_2 Ni2_2 2.896721 1_555
Ce1_2 Ni2_6 2.896721 1_555
Ce1_2 Ni0_7 2.896721 1_554
Ce1_2 In0_2 3.313786 1_555
Ce1_2 In1_6 3.313786 1_555
Ce1_2 In0_6 3.313786 1_555
Ce1_2 In1_2 3.313786 1_555
Ce1_3 Ni3_3 2.805554 1_555
Ce1_3 Ni3_7 2.805554 1_555
Ce1_3 Ni2_7 2.896721 1_555
Ce1_3 Ni2_3 2.896721 1_555
Ce1_3 Ni0_2 2.896721 1_555
Ce1_3 Ni0_6 2.896721 1_555
Ce1_3 In1_3 3.313786 1_555
Ce1_3 In1_7 3.313786 1_555
Ce1_3 In0_7 3.313786 1_555
Ce1_3 In0_3 3.313786 1_555
Ce1_4 Ni3_0 2.805554 1_655
Ce1_4 Ni3_4 2.805554 1_555
Ce1_4 Ni0_1 2.896721 1_654
Ce1_4 Ni0_5 2.896721 1_554
Ce1_4 Ni2_0 2.896721 1_655
Ce1_4 Ni2_4 2.896721 1_555
Ce1_4 In1_0 3.313786 1_655
Ce1_4 In0_0 3.313786 1_655
Ce1_4 In0_4 3.313786 1_555
Ce1_4 In1_4 3.313786 1_555
Ce1_5 Ni3_1 2.805554 1_655
Ce1_5 Ni3_5 2.805554 1_555
Ce1_5 Ni0_0 2.896721 1_655
Ce1_5 Ni2_1 2.896721 1_655
Ce1_5 Ni2_5 2.896721 1_555
Ce1_5 Ni0_4 2.896721 1_555
Ce1_5 In1_1 3.313786 1_655
Ce1_5 In0_1 3.313786 1_655
Ce1_5 In1_5 3.313786 1_555
Ce1_5 In0_5 3.313786 1_555
Ce1_6 Ni3_2 2.805554 1_655
Ce1_6 Ni3_6 2.805554 1_555
Ce1_6 Ni0_3 2.896721 1_654
Ce1_6 Ni2_2 2.896721 1_655
Ce1_6 Ni2_6 2.896721 1_555
Ce1_6 Ni0_7 2.896721 1_554
Ce1_6 In0_2 3.313786 1_655
Ce1_6 In1_2 3.313786 1_655
Ce1_6 In0_6 3.313786 1_555
Ce1_6 In1_6 3.313786 1_555
Ce1_7 Ni3_3 2.805554 1_655
Ce1_7 Ni3_7 2.805554 1_555
Ce1_7 Ni2_3 2.896721 1_655
Ce1_7 Ni2_7 2.896721 1_555
Ce1_7 Ni0_2 2.896721 1_655
Ce1_7 Ni0_6 2.896721 1_555
Ce1_7 In1_3 3.313786 1_655
Ce1_7 In1_7 3.313786 1_555
Ce1_7 In0_3 3.313786 1_655
Ce1_7 In0_7 3.313786 1_555
Ce2_0 Ni1_0 2.805554 1_555
Ce2_0 Ni1_4 2.805554 1_555
Ce2_0 Ni0_4 2.896721 1_555
Ce2_0 Ni0_0 2.896721 1_555
Ce2_0 Ni2_1 2.896721 1_555
Ce2_0 Ni2_5 2.896721 1_555
Ce2_0 In1_0 3.313786 1_555
Ce2_0 In1_4 3.313786 1_555
Ce2_0 In0_3 3.313786 1_555
Ce2_0 In0_7 3.313786 1_555
Ce2_1 Ni1_1 2.805554 1_555
Ce2_1 Ni1_5 2.805554 1_555
Ce2_1 Ni2_0 2.896721 1_556
Ce2_1 Ni0_5 2.896721 1_555
Ce2_1 Ni2_4 2.896721 1_556
Ce2_1 Ni0_1 2.896721 1_555
Ce2_1 In0_2 3.313786 1_556
Ce2_1 In1_1 3.313786 1_555
Ce2_1 In0_6 3.313786 1_556
Ce2_1 In1_5 3.313786 1_555
Ce2_2 Ni1_2 2.805554 1_555
Ce2_2 Ni1_6 2.805554 1_555
Ce2_2 Ni0_6 2.896721 1_555
Ce2_2 Ni0_2 2.896721 1_555
Ce2_2 Ni2_7 2.896721 1_555
Ce2_2 Ni2_3 2.896721 1_555
Ce2_2 In1_2 3.313786 1_555
Ce2_2 In1_6 3.313786 1_555
Ce2_2 In0_1 3.313786 1_565
Ce2_2 In0_5 3.313786 1_565
Ce2_3 Ni1_3 2.805554 1_555
Ce2_3 Ni1_7 2.805554 1_555
Ce2_3 Ni2_6 2.896721 1_556
Ce2_3 Ni0_3 2.896721 1_555
Ce2_3 Ni0_7 2.896721 1_555
Ce2_3 Ni2_2 2.896721 1_556
Ce2_3 In1_7 3.313786 1_555
Ce2_3 In1_3 3.313786 1_555
Ce2_3 In0_0 3.313786 1_566
Ce2_3 In0_4 3.313786 1_566
Ce2_4 Ni1_0 2.805554 1_655
Ce2_4 Ni1_4 2.805554 1_555
Ce2_4 Ni0_0 2.896721 1_655
Ce2_4 Ni2_1 2.896721 1_655
Ce2_4 Ni0_4 2.896721 1_555
Ce2_4 Ni2_5 2.896721 1_555
Ce2_4 In1_0 3.313786 1_655
Ce2_4 In0_3 3.313786 1_655
Ce2_4 In0_7 3.313786 1_555
Ce2_4 In1_4 3.313786 1_555
Ce2_5 Ni1_1 2.805554 1_655
Ce2_5 Ni1_5 2.805554 1_555
Ce2_5 Ni2_0 2.896721 1_656
Ce2_5 Ni0_1 2.896721 1_655
Ce2_5 Ni0_5 2.896721 1_555
Ce2_5 Ni2_4 2.896721 1_556
Ce2_5 In1_1 3.313786 1_655
Ce2_5 In0_2 3.313786 1_656
Ce2_5 In0_6 3.313786 1_556
Ce2_5 In1_5 3.313786 1_555
Ce2_6 Ni1_2 2.805554 1_655
Ce2_6 Ni1_6 2.805554 1_555
Ce2_6 Ni0_2 2.896721 1_655
Ce2_6 Ni2_3 2.896721 1_655
Ce2_6 Ni0_6 2.896721 1_555
Ce2_6 Ni2_7 2.896721 1_555
Ce2_6 In1_2 3.313786 1_655
Ce2_6 In1_6 3.313786 1_555
Ce2_6 In0_1 3.313786 1_665
Ce2_6 In0_5 3.313786 1_565
Ce2_7 Ni1_3 2.805554 1_655
Ce2_7 Ni1_7 2.805554 1_555
Ce2_7 Ni2_2 2.896721 1_656
Ce2_7 Ni0_3 2.896721 1_655
Ce2_7 Ni0_7 2.896721 1_555
Ce2_7 Ni2_6 2.896721 1_556
Ce2_7 In0_0 3.313786 1_666
Ce2_7 In1_3 3.313786 1_655
Ce2_7 In0_4 3.313786 1_566
Ce2_7 In1_7 3.313786 1_555
Ce3_0 Ni2_0 2.804614 1_555
Ce3_0 Ni2_4 2.804614 1_555
Ce3_0 Ni1_0 2.893760 1_555
Ce3_0 Ni1_4 2.893760 1_555
Ce3_0 Ni3_2 2.893760 1_555
Ce3_0 Ni3_6 2.893760 1_555
Ce3_0 In1_0 3.314595 1_555
Ce3_0 In1_4 3.314595 1_555
Ce3_0 In0_2 3.314595 1_555
Ce3_0 In0_6 3.314595 1_555
Ce3_1 Ni2_5 2.804614 1_555
Ce3_1 Ni2_1 2.804614 1_555
Ce3_1 Ni1_1 2.893760 1_555
Ce3_1 Ni1_5 2.893760 1_555
Ce3_1 Ni3_7 2.893760 1_555
Ce3_1 Ni3_3 2.893760 1_555
Ce3_1 In1_1 3.314595 1_555
Ce3_1 In1_5 3.314595 1_555
Ce3_1 In0_7 3.314595 1_555
Ce3_1 In0_3 3.314595 1_555
Ce3_2 Ni2_6 2.804614 1_555
Ce3_2 Ni2_2 2.804614 1_555
Ce3_2 Ni1_2 2.893760 1_555
Ce3_2 Ni1_6 2.893760 1_555
Ce3_2 Ni3_0 2.893760 1_565
Ce3_2 Ni3_4 2.893760 1_565
Ce3_2 In1_2 3.314595 1_555
Ce3_2 In1_6 3.314595 1_555
Ce3_2 In0_4 3.314595 1_565
Ce3_2 In0_0 3.314595 1_565
Ce3_3 Ni2_3 2.804614 1_555
Ce3_3 Ni2_7 2.804614 1_555
Ce3_3 Ni1_3 2.893760 1_555
Ce3_3 Ni1_7 2.893760 1_555
Ce3_3 Ni3_5 2.893760 1_565
Ce3_3 Ni3_1 2.893760 1_565
Ce3_3 In1_3 3.314595 1_555
Ce3_3 In1_7 3.314595 1_555
Ce3_3 In0_1 3.314595 1_565
Ce3_3 In0_5 3.314595 1_565
Ce3_4 Ni2_0 2.804614 1_655
Ce3_4 Ni2_4 2.804614 1_555
Ce3_4 Ni1_0 2.893760 1_655
Ce3_4 Ni1_4 2.893760 1_555
Ce3_4 Ni3_2 2.893760 1_655
Ce3_4 Ni3_6 2.893760 1_555
Ce3_4 In1_0 3.314595 1_655
Ce3_4 In1_4 3.314595 1_555
Ce3_4 In0_2 3.314595 1_655
Ce3_4 In0_6 3.314595 1_555
Ce3_5 Ni2_1 2.804614 1_655
Ce3_5 Ni2_5 2.804614 1_555
Ce3_5 Ni1_1 2.893760 1_655
Ce3_5 Ni1_5 2.893760 1_555
Ce3_5 Ni3_3 2.893760 1_655
Ce3_5 Ni3_7 2.893760 1_555
Ce3_5 In1_1 3.314595 1_655
Ce3_5 In1_5 3.314595 1_555
Ce3_5 In0_3 3.314595 1_655
Ce3_5 In0_7 3.314595 1_555
Ce3_6 Ni2_2 2.804614 1_655
Ce3_6 Ni2_6 2.804614 1_555
Ce3_6 Ni1_2 2.893760 1_655
Ce3_6 Ni1_6 2.893760 1_555
Ce3_6 Ni3_0 2.893760 1_665
Ce3_6 Ni3_4 2.893760 1_565
Ce3_6 In1_2 3.314595 1_655
Ce3_6 In1_6 3.314595 1_555
Ce3_6 In0_0 3.314595 1_665
Ce3_6 In0_4 3.314595 1_565
Ce3_7 Ni2_3 2.804614 1_655
Ce3_7 Ni2_7 2.804614 1_555
Ce3_7 Ni1_3 2.893760 1_655
Ce3_7 Ni1_7 2.893760 1_555
Ce3_7 Ni3_1 2.893760 1_665
Ce3_7 Ni3_5 2.893760 1_565
Ce3_7 In1_3 3.314595 1_655
Ce3_7 In1_7 3.314595 1_555
Ce3_7 In0_1 3.314595 1_665
Ce3_7 In0_5 3.314595 1_565
In0_0 Ni2_2 2.960309 1_545
In0_0 Ni0_1 2.960309 1_554
In0_0 Ni1_3 2.961501 1_544
In0_0 Ni3_0 2.961501 1_555
In0_0 In0_4 3.617863 1_455
In0_0 In0_4 3.617863 1_555
In0_1 Ni0_0 2.960309 1_555
In0_1 Ni2_3 2.960309 1_545
In0_1 Ni3_1 2.961501 1_555
In0_1 Ni1_2 2.961501 1_545
In0_1 In0_5 3.617863 1_555
In0_1 In0_5 3.617863 1_455
In0_2 Ni0_3 2.960309 1_554
In0_2 Ni2_0 2.960309 1_555
In0_2 Ni1_1 2.961501 1_554
In0_2 Ni3_2 2.961501 1_555
In0_2 In0_6 3.617863 1_455
In0_2 In0_6 3.617863 1_555
In0_3 Ni0_2 2.960309 1_555
In0_3 Ni2_1 2.960309 1_555
In0_3 Ni3_3 2.961501 1_555
In0_3 Ni1_0 2.961501 1_555
In0_3 In0_7 3.617863 1_455
In0_3 In0_7 3.617863 1_555
In0_4 Ni2_6 2.960309 1_545
In0_4 Ni0_5 2.960309 1_554
In0_4 Ni1_7 2.961501 1_544
In0_4 Ni3_4 2.961501 1_555
In0_5 Ni0_4 2.960309 1_555
In0_5 Ni2_7 2.960309 1_545
In0_5 Ni3_5 2.961501 1_555
In0_5 Ni1_6 2.961501 1_545
In0_6 Ni2_4 2.960309 1_555
In0_6 Ni0_7 2.960309 1_554
In0_6 Ni1_5 2.961501 1_554
In0_6 Ni3_6 2.961501 1_555
In0_7 Ni0_6 2.960309 1_555
In0_7 Ni2_5 2.960309 1_555
In0_7 Ni1_4 2.961501 1_555
In0_7 Ni3_7 2.961501 1_555
In1_0 Ni2_0 2.960309 1_555
In1_0 Ni0_0 2.960309 1_555
In1_0 Ni3_0 2.961501 1_555
In1_0 Ni1_0 2.961501 1_555
In1_0 In1_4 3.617863 1_555
In1_0 In1_4 3.617863 1_455
In1_1 Ni2_1 2.960309 1_555
In1_1 Ni0_1 2.960309 1_555
In1_1 Ni3_1 2.961501 1_555
In1_1 Ni1_1 2.961501 1_555
In1_1 In1_5 3.617863 1_555
In1_1 In1_5 3.617863 1_455
In1_2 Ni2_2 2.960309 1_555
In1_2 Ni0_2 2.960309 1_555
In1_2 Ni1_2 2.961501 1_555
In1_2 Ni3_2 2.961501 1_555
In1_2 In1_6 3.617863 1_455
In1_2 In1_6 3.617863 1_555
In1_3 Ni2_3 2.960309 1_555
In1_3 Ni0_3 2.960309 1_555
In1_3 Ni3_3 2.961501 1_555
In1_3 Ni1_3 2.961501 1_555
In1_3 In1_7 3.617863 1_555
In1_3 In1_7 3.617863 1_455
In1_4 Ni2_4 2.960309 1_555
In1_4 Ni0_4 2.960309 1_555
In1_4 Ni1_4 2.961501 1_555
In1_4 Ni3_4 2.961501 1_555
In1_5 Ni2_5 2.960309 1_555
In1_5 Ni0_5 2.960309 1_555
In1_5 Ni3_5 2.961501 1_555
In1_5 Ni1_5 2.961501 1_555
In1_6 Ni2_6 2.960309 1_555
In1_6 Ni0_6 2.960309 1_555
In1_6 Ni1_6 2.961501 1_555
In1_6 Ni3_6 2.961501 1_555
In1_7 Ni2_7 2.960309 1_555
In1_7 Ni0_7 2.960309 1_555
In1_7 Ni3_7 2.961501 1_555
In1_7 Ni1_7 2.961501 1_555
Ni0_0 Ni2_1 2.669583 1_555
Ni0_1 Ni2_0 2.669583 1_556
Ni0_2 Ni2_3 2.669583 1_555
Ni0_3 Ni2_2 2.669583 1_556
Ni0_4 Ni2_5 2.669583 1_555
Ni0_5 Ni2_4 2.669583 1_556
Ni0_6 Ni2_7 2.669583 1_555
Ni0_7 Ni2_6 2.669583 1_556
Ni1_0 Ni3_2 2.663529 1_555
Ni1_1 Ni3_3 2.663529 1_555
Ni1_2 Ni3_0 2.663529 1_565
Ni1_3 Ni3_1 2.663529 1_565
Ni1_4 Ni3_6 2.663529 1_555
Ni1_5 Ni3_7 2.663529 1_555
Ni1_6 Ni3_4 2.663529 1_565
Ni1_7 Ni3_5 2.663529 1_565
