# generated using pymatgen
data_Cu9Se5
_symmetry_space_group_name_H-M   'P 1'
_cell_length_a   7.02097700
_cell_length_b   8.11368191
_cell_length_c   9.08726027
_cell_angle_alpha   77.12237218
_cell_angle_beta   75.02482275
_cell_angle_gamma   73.28801072
_symmetry_Int_Tables_number   1
_chemical_formula_structural   Cu9Se5
_chemical_formula_sum   'Cu18 Se10'
_cell_volume   472.74660668
_cell_formula_units_Z   2
loop_
 _symmetry_equiv_pos_site_id
 _symmetry_equiv_pos_as_xyz
  1  'x, y, z'
loop_
 _atom_site_type_symbol
 _atom_site_label
 _atom_site_symmetry_multiplicity
 _atom_site_fract_x
 _atom_site_fract_y
 _atom_site_fract_z
 _atom_site_occupancy
  Cu  Cu0  1  0.04930500  0.45136100  0.14939000  1
  Cu  Cu1  1  0.04942800  0.94950800  0.14943600  1
  Cu  Cu2  1  0.95057200  0.05049200  0.85056400  1
  Cu  Cu3  1  0.15044200  0.35026100  0.45069200  1
  Cu  Cu4  1  0.95069500  0.54863900  0.85061000  1
  Cu  Cu5  1  0.44596000  0.55159100  0.34913600  1
  Cu  Cu6  1  0.34895700  0.65088300  0.04621300  1
  Cu  Cu7  1  0.25409800  0.74952900  0.74708500  1
  Cu  Cu8  1  0.64947400  0.84981300  0.95112500  1
  Cu  Cu9  1  0.15090400  0.84901000  0.44967200  1
  Cu  Cu10  1  0.54899400  0.95040100  0.64992600  1
  Cu  Cu11  1  0.45100600  0.04959900  0.35007400  1
  Cu  Cu12  1  0.35052600  0.15018700  0.04887500  1
  Cu  Cu13  1  0.84909600  0.15099000  0.55032800  1
  Cu  Cu14  1  0.65104300  0.34911700  0.95378700  1
  Cu  Cu15  1  0.55404000  0.44840900  0.65086400  1
  Cu  Cu16  1  0.84955800  0.64973900  0.54930800  1
  Cu  Cu17  1  0.74590200  0.25047100  0.25291500  1
  Se  Se0  1  0.89942300  0.85019100  0.70012900  1
  Se  Se1  1  0.90462700  0.34883000  0.69976500  1
  Se  Se2  1  0.09537300  0.65117000  0.30023500  1
  Se  Se3  1  0.29922000  0.95447100  0.89873300  1
  Se  Se4  1  0.10057700  0.14980900  0.29987100  1
  Se  Se5  1  0.49682000  0.24967200  0.50308300  1
  Se  Se6  1  0.29799700  0.44715300  0.89838700  1
  Se  Se7  1  0.70200300  0.55284700  0.10161300  1
  Se  Se8  1  0.50318000  0.75032800  0.49691700  1
  Se  Se9  1  0.70078000  0.04552900  0.10126700  1
loop_
_geom_bond_atom_site_label_1
_geom_bond_atom_site_label_2
_geom_bond_distance
_geom_bond_site_symmetry_2
Cu0 Se7 2.458725 1_455
Cu0 Se2 2.476514 1_555
Cu0 Se6 2.488921 1_554
Cu0 Se4 2.498475 1_555
Cu0 Cu4 2.859371 1_454
Cu0 Cu6 2.861601 1_555
Cu0 Cu12 2.881436 1_555
Cu0 Cu3 2.888330 1_555
Cu0 Cu17 2.890883 1_455
Cu1 Se9 2.468901 1_465
Cu1 Se2 2.478332 1_555
Cu1 Se3 2.490471 1_554
Cu1 Se4 2.493719 1_565
Cu1 Cu2 2.860865 1_464
Cu1 Cu6 2.869880 1_555
Cu1 Cu12 2.876335 1_565
Cu1 Cu9 2.880114 1_555
Cu1 Cu17 2.895449 1_465
Cu2 Se3 2.468901 1_645
Cu2 Se1 2.478332 1_555
Cu2 Se9 2.490471 1_556
Cu2 Se0 2.493719 1_545
Cu2 Cu8 2.876335 1_545
Cu2 Cu7 2.895449 1_645
Cu3 Se1 2.466314 1_455
Cu3 Se5 2.467917 1_555
Cu3 Se4 2.493031 1_555
Cu3 Se2 2.494402 1_555
Cu3 Cu5 2.848283 1_555
Cu4 Se6 2.458725 1_655
Cu4 Se1 2.476514 1_555
Cu4 Se7 2.488921 1_556
Cu4 Se0 2.498475 1_555
Cu4 Cu8 2.881436 1_555
Cu4 Cu7 2.890883 1_655
Cu5 Se2 2.484057 1_555
Cu5 Se8 2.486276 1_555
Cu5 Se7 2.490328 1_555
Cu5 Se5 2.512576 1_555
Cu5 Cu9 2.842359 1_555
Cu5 Cu6 2.890548 1_555
Cu6 Se6 2.498655 1_554
Cu6 Se3 2.502236 1_554
Cu6 Se7 2.522442 1_555
Cu6 Se2 2.524767 1_555
Cu6 Cu7 2.851725 1_554
Cu6 Cu8 2.863270 1_554
Cu7 Se8 2.484305 1_555
Cu7 Se0 2.504827 1_455
Cu7 Se6 2.506997 1_555
Cu7 Se3 2.512855 1_555
Cu7 Cu9 2.860791 1_555
Cu8 Se9 2.462047 1_566
Cu8 Se7 2.468324 1_556
Cu8 Se0 2.492666 1_555
Cu8 Se3 2.493779 1_555
Cu9 Se2 2.485557 1_555
Cu9 Se8 2.489848 1_555
Cu9 Se4 2.491211 1_565
Cu9 Se0 2.494157 1_455
Cu10 Se5 2.471376 1_565
Cu10 Se3 2.477757 1_555
Cu10 Se0 2.487326 1_555
Cu10 Se8 2.491886 1_555
Cu10 Cu7 2.842042 1_555
Cu10 Cu11 2.866812 1_565
Cu10 Cu13 2.870110 1_565
Cu10 Cu16 2.876911 1_555
Cu10 Cu8 2.885551 1_555
Cu11 Se8 2.471376 1_545
Cu11 Se9 2.477757 1_555
Cu11 Se4 2.487326 1_555
Cu11 Se5 2.491886 1_555
Cu11 Cu17 2.842042 1_555
Cu11 Cu9 2.870110 1_545
Cu11 Cu3 2.876911 1_555
Cu11 Cu12 2.885551 1_555
Cu12 Se3 2.462047 1_544
Cu12 Se6 2.468324 1_554
Cu12 Se4 2.492666 1_555
Cu12 Se9 2.493779 1_555
Cu12 Cu8 2.862445 1_544
Cu12 Cu14 2.863270 1_554
Cu13 Se1 2.485557 1_555
Cu13 Se5 2.489848 1_555
Cu13 Se0 2.491211 1_545
Cu13 Se4 2.494157 1_655
Cu13 Cu15 2.842359 1_555
Cu13 Cu17 2.860791 1_555
Cu13 Cu3 2.869688 1_655
Cu13 Cu2 2.880114 1_555
Cu13 Cu9 2.888152 1_645
Cu14 Se7 2.498655 1_556
Cu14 Se9 2.502236 1_556
Cu14 Se6 2.522442 1_555
Cu14 Se1 2.524767 1_555
Cu14 Cu17 2.851725 1_556
Cu14 Cu4 2.861601 1_555
Cu14 Cu6 2.864971 1_556
Cu14 Cu2 2.869880 1_555
Cu14 Cu15 2.890548 1_555
Cu15 Se1 2.484057 1_555
Cu15 Se5 2.486276 1_555
Cu15 Se6 2.490328 1_555
Cu15 Se8 2.512576 1_555
Cu15 Cu16 2.848283 1_555
Cu15 Cu7 2.865319 1_555
Cu15 Cu5 2.912273 1_555
Cu16 Se2 2.466314 1_655
Cu16 Se8 2.467917 1_555
Cu16 Se0 2.493031 1_555
Cu16 Se1 2.494402 1_555
Cu16 Cu3 2.865325 1_655
Cu16 Cu9 2.869688 1_655
Cu16 Cu4 2.888330 1_555
Cu17 Se5 2.484305 1_555
Cu17 Se4 2.504827 1_655
Cu17 Se7 2.506997 1_555
Cu17 Se9 2.512855 1_555
Cu17 Cu5 2.865319 1_555
