# generated using pymatgen
data_BaNd2(MoO4)4
_symmetry_space_group_name_H-M   'P 1'
_cell_length_a   7.03125813
_cell_length_b   7.03125813
_cell_length_c   19.72078796
_cell_angle_alpha   89.48839874
_cell_angle_beta   89.48839874
_cell_angle_gamma   134.47429599
_symmetry_Int_Tables_number   1
_chemical_formula_structural   BaNd2(MoO4)4
_chemical_formula_sum   'Ba2 Nd4 Mo8 O32'
_cell_volume   695.51756408
_cell_formula_units_Z   2
loop_
 _symmetry_equiv_pos_site_id
 _symmetry_equiv_pos_as_xyz
  1  'x, y, z'
loop_
 _atom_site_type_symbol
 _atom_site_label
 _atom_site_symmetry_multiplicity
 _atom_site_fract_x
 _atom_site_fract_y
 _atom_site_fract_z
 _atom_site_occupancy
  Ba  Ba0  1  0.03190900  0.96809100  0.25000000  1
  Ba  Ba1  1  0.96809100  0.03190900  0.75000000  1
  Nd  Nd0  1  0.84980700  0.14576800  0.96644100  1
  Nd  Nd1  1  0.14576800  0.84980700  0.46644100  1
  Nd  Nd2  1  0.85423200  0.15019300  0.53355900  1
  Nd  Nd3  1  0.15019300  0.85423200  0.03355900  1
  Mo  Mo0  1  0.45175300  0.56691300  0.40804900  1
  Mo  Mo1  1  0.74392700  0.26456900  0.15111800  1
  Mo  Mo2  1  0.56691300  0.45175300  0.90804900  1
  Mo  Mo3  1  0.25607300  0.73543100  0.84888200  1
  Mo  Mo4  1  0.43308700  0.54824700  0.09195100  1
  Mo  Mo5  1  0.54824700  0.43308700  0.59195100  1
  Mo  Mo6  1  0.73543100  0.25607300  0.34888200  1
  Mo  Mo7  1  0.26456900  0.74392700  0.65111800  1
  O  O0  1  0.18373100  0.52258000  0.04716000  1
  O  O1  1  0.91368000  0.39880200  0.43113900  1
  O  O2  1  0.26241400  0.98287100  0.67567500  1
  O  O3  1  0.46364100  0.29975900  0.82952700  1
  O  O4  1  0.76787100  0.73474700  0.53630800  1
  O  O5  1  0.31422100  0.22533800  0.10418700  1
  O  O6  1  0.68577900  0.77466200  0.89581300  1
  O  O7  1  0.73758600  0.01712900  0.32432500  1
  O  O8  1  0.52258000  0.18373100  0.54716000  1
  O  O9  1  0.90468200  0.51461000  0.28764100  1
  O  O10  1  0.51461000  0.90468200  0.78764100  1
  O  O11  1  0.53635900  0.70024100  0.17047300  1
  O  O12  1  0.23212900  0.26525300  0.46369200  1
  O  O13  1  0.39880200  0.91368000  0.93113900  1
  O  O14  1  0.08632000  0.60119800  0.56886100  1
  O  O15  1  0.09362700  0.39076300  0.86324500  1
  O  O16  1  0.81626900  0.47742000  0.95284000  1
  O  O17  1  0.70024100  0.53635900  0.67047300  1
  O  O18  1  0.22533800  0.31422100  0.60418700  1
  O  O19  1  0.98287100  0.26241400  0.17567500  1
  O  O20  1  0.26525300  0.23212900  0.96369200  1
  O  O21  1  0.29975900  0.46364100  0.32952700  1
  O  O22  1  0.73474700  0.76787100  0.03630800  1
  O  O23  1  0.48539000  0.09531800  0.21235900  1
  O  O24  1  0.60119800  0.08632000  0.06886100  1
  O  O25  1  0.09531800  0.48539000  0.71235900  1
  O  O26  1  0.47742000  0.81626900  0.45284000  1
  O  O27  1  0.90637300  0.60923700  0.13675500  1
  O  O28  1  0.39076300  0.09362700  0.36324500  1
  O  O29  1  0.77466200  0.68577900  0.39581300  1
  O  O30  1  0.60923700  0.90637300  0.63675500  1
  O  O31  1  0.01712900  0.73758600  0.82432500  1
loop_
_geom_bond_atom_site_label_1
_geom_bond_atom_site_label_2
_geom_bond_distance
_geom_bond_site_symmetry_2
Ba0 O9 2.732632 1_455
Ba0 O23 2.732632 1_565
Ba0 O7 2.739459 1_465
Ba0 O19 2.739459 1_465
Ba0 O21 3.017087 1_565
Ba0 O11 3.017087 1_455
Ba0 O28 3.024624 1_565
Ba0 O27 3.024624 1_455
Ba0 O29 3.202349 1_455
Ba0 O5 3.202349 1_565
Ba1 O10 2.732632 1_545
Ba1 O25 2.732632 1_655
Ba1 O31 2.739459 1_645
Ba1 O2 2.739459 1_645
Ba1 O3 3.017087 1_655
Ba1 O17 3.017087 1_545
Ba1 O15 3.024624 1_655
Ba1 O30 3.024624 1_545
Ba1 O6 3.202349 1_545
Ba1 O18 3.202349 1_655
Nd0 O15 2.405256 1_655
Nd0 O6 2.440427 1_545
Nd0 O13 2.452048 1_545
Nd0 O24 2.491590 1_556
Nd0 O16 2.515139 1_555
Nd0 O20 2.532932 1_655
Nd0 O0 2.547948 1_656
Nd0 O22 2.552599 1_546
Nd1 O28 2.405256 1_565
Nd1 O29 2.440427 1_455
Nd1 O1 2.452048 1_455
Nd1 O14 2.491590 1_555
Nd1 O26 2.515139 1_555
Nd1 O12 2.532932 1_565
Nd1 O8 2.547948 1_565
Nd1 O4 2.552599 1_455
Nd2 O30 2.405256 1_545
Nd2 O18 2.440427 1_655
Nd2 O14 2.452048 1_655
Nd2 O1 2.491590 1_555
Nd2 O8 2.515139 1_555
Nd2 O4 2.532932 1_545
Nd2 O26 2.547948 1_545
Nd2 O12 2.552599 1_655
Nd3 O27 2.405256 1_455
Nd3 O5 2.440427 1_565
Nd3 O24 2.452048 1_565
Nd3 O13 2.491590 1_554
Nd3 O0 2.515139 1_555
Nd3 O22 2.532932 1_455
Nd3 O16 2.547948 1_454
Nd3 O20 2.552599 1_564
Mo0 O21 1.740573 1_555
Mo0 O29 1.799852 1_555
Mo0 O12 1.851051 1_555
Mo0 O26 1.863859 1_555
Mo1 O23 1.755927 1_555
Mo1 O19 1.762807 1_555
Mo1 O27 1.833404 1_555
Mo1 O24 1.874136 1_555
Mo2 O3 1.740573 1_555
Mo2 O6 1.799852 1_555
Mo2 O20 1.851051 1_555
Mo2 O16 1.863859 1_555
Mo3 O10 1.755927 1_555
Mo3 O31 1.762807 1_555
Mo3 O15 1.833404 1_555
Mo3 O13 1.874136 1_555
Mo4 O11 1.740573 1_555
Mo4 O5 1.799852 1_555
Mo4 O22 1.851051 1_555
Mo4 O0 1.863859 1_555
Mo5 O17 1.740573 1_555
Mo5 O18 1.799852 1_555
Mo5 O4 1.851051 1_555
Mo5 O8 1.863859 1_555
Mo6 O9 1.755927 1_555
Mo6 O7 1.762807 1_555
Mo6 O28 1.833404 1_555
Mo6 O1 1.874136 1_555
Mo7 O25 1.755927 1_555
Mo7 O2 1.762807 1_555
Mo7 O30 1.833404 1_555
Mo7 O14 1.874136 1_555
