# generated using pymatgen
data_NaMoAsO6
_symmetry_space_group_name_H-M   'P 1'
_cell_length_a   6.56412704
_cell_length_b   10.08975698
_cell_length_c   14.93574699
_cell_angle_alpha   90.00000000
_cell_angle_beta   90.00000000
_cell_angle_gamma   90.00000000
_symmetry_Int_Tables_number   1
_chemical_formula_structural   NaMoAsO6
_chemical_formula_sum   'Na8 Mo8 As8 O48'
_cell_volume   989.20119374
_cell_formula_units_Z   8
loop_
 _symmetry_equiv_pos_site_id
 _symmetry_equiv_pos_as_xyz
  1  'x, y, z'
loop_
 _atom_site_type_symbol
 _atom_site_label
 _atom_site_symmetry_multiplicity
 _atom_site_fract_x
 _atom_site_fract_y
 _atom_site_fract_z
 _atom_site_occupancy
  Na  Na0  1  0.76400755  0.30734487  0.56088551  1
  Na  Na1  1  0.23599245  0.80734487  0.43911449  1
  Na  Na2  1  0.76400755  0.80734487  0.93911449  1
  Na  Na3  1  0.27334187  0.33621671  0.68757496  1
  Na  Na4  1  0.72665813  0.33621671  0.18757496  1
  Na  Na5  1  0.72665813  0.83621671  0.31242504  1
  Na  Na6  1  0.27334187  0.83621671  0.81242504  1
  Na  Na7  1  0.23599245  0.30734487  0.06088551  1
  Mo  Mo0  1  0.01404334  0.50402294  0.85039049  1
  Mo  Mo1  1  0.48967408  0.14382670  0.40028529  1
  Mo  Mo2  1  0.98595666  0.50402294  0.35039049  1
  Mo  Mo3  1  0.98595666  0.00402294  0.14960951  1
  Mo  Mo4  1  0.51032592  0.64382670  0.59971471  1
  Mo  Mo5  1  0.51032592  0.14382670  0.90028529  1
  Mo  Mo6  1  0.01404334  0.00402294  0.64960951  1
  Mo  Mo7  1  0.48967408  0.64382670  0.09971471  1
  As  As0  1  0.49225145  0.98389241  0.10542642  1
  As  As1  1  0.01407812  0.16312253  0.85555793  1
  As  As2  1  0.49225145  0.48389241  0.39457358  1
  As  As3  1  0.98592188  0.16312253  0.35555793  1
  As  As4  1  0.01407812  0.66312253  0.64444207  1
  As  As5  1  0.98592188  0.66312253  0.14444207  1
  As  As6  1  0.50774855  0.48389241  0.89457358  1
  As  As7  1  0.50774855  0.98389241  0.60542642  1
  O  O0  1  0.68696918  0.99108302  0.18115641  1
  O  O1  1  0.97601151  0.30213936  0.29449624  1
  O  O2  1  0.50261601  0.34541329  0.45616241  1
  O  O3  1  0.20904845  0.15339222  0.93093400  1
  O  O4  1  0.20904845  0.65339222  0.56906600  1
  O  O5  1  0.49738399  0.34541329  0.95616241  1
  O  O6  1  0.01774841  0.67078489  0.87212274  1
  O  O7  1  0.49839350  0.62475396  0.45544992  1
  O  O8  1  0.51949102  0.71103563  0.20363375  1
  O  O9  1  0.01774841  0.17078489  0.62787726  1
  O  O10  1  0.80075866  0.66544995  0.57887857  1
  O  O11  1  0.80075866  0.16544995  0.92112143  1
  O  O12  1  0.51949102  0.21103563  0.29636625  1
  O  O13  1  0.49839350  0.12475396  0.04455008  1
  O  O14  1  0.72210365  0.98585056  0.67013753  1
  O  O15  1  0.19924134  0.16544995  0.42112143  1
  O  O16  1  0.02398849  0.80213936  0.70550376  1
  O  O17  1  0.79095155  0.65339222  0.06906600  1
  O  O18  1  0.96077993  0.93622741  0.04555030  1
  O  O19  1  0.02398849  0.30213936  0.79449624  1
  O  O20  1  0.68696918  0.49108302  0.31884359  1
  O  O21  1  0.19924134  0.66544995  0.07887857  1
  O  O22  1  0.48050898  0.71103563  0.70363375  1
  O  O23  1  0.50261601  0.84541329  0.04383759  1
  O  O24  1  0.96077993  0.43622741  0.45444970  1
  O  O25  1  0.27789635  0.98585056  0.17013753  1
  O  O26  1  0.01660243  0.02304483  0.79401102  1
  O  O27  1  0.01660243  0.52304483  0.70598898  1
  O  O28  1  0.98339757  0.02304483  0.29401102  1
  O  O29  1  0.48050898  0.21103563  0.79636625  1
  O  O30  1  0.98339757  0.52304483  0.20598898  1
  O  O31  1  0.72210365  0.48585056  0.82986247  1
  O  O32  1  0.49738399  0.84541329  0.54383759  1
  O  O33  1  0.79095155  0.15339222  0.43093400  1
  O  O34  1  0.03922007  0.93622741  0.54555030  1
  O  O35  1  0.98225159  0.17078489  0.12787726  1
  O  O36  1  0.27789635  0.48585056  0.32986247  1
  O  O37  1  0.50160650  0.12475396  0.54455008  1
  O  O38  1  0.51763358  0.97699772  0.87854284  1
  O  O39  1  0.51763358  0.47699772  0.62145716  1
  O  O40  1  0.03922007  0.43622741  0.95444970  1
  O  O41  1  0.31303082  0.99108302  0.68115641  1
  O  O42  1  0.50160650  0.62475396  0.95544992  1
  O  O43  1  0.98225159  0.67078489  0.37212274  1
  O  O44  1  0.31303082  0.49108302  0.81884359  1
  O  O45  1  0.48236642  0.47699772  0.12145716  1
  O  O46  1  0.97601151  0.80213936  0.20550376  1
  O  O47  1  0.48236642  0.97699772  0.37854284  1
loop_
_geom_bond_atom_site_label_1
_geom_bond_atom_site_label_2
_geom_bond_distance
_geom_bond_site_symmetry_2
Na0 O2 2.353294 1_555
Na0 O9 2.381977 1_655
Na0 O24 2.426210 1_555
Na0 O33 2.492257 1_555
Na0 O39 2.522696 1_555
Na0 O37 2.533844 1_555
Na1 O32 2.353294 1_555
Na1 O43 2.381977 1_455
Na1 O34 2.426210 1_555
Na1 O4 2.492257 1_555
Na1 O47 2.522696 1_555
Na1 O7 2.533844 1_555
Na2 O23 2.353294 1_556
Na2 O6 2.381977 1_655
Na2 O18 2.426210 1_556
Na2 O17 2.492257 1_556
Na2 O38 2.522696 1_555
Na2 O42 2.533844 1_555
Na3 O19 2.312475 1_555
Na3 O39 2.358871 1_555
Na3 O29 2.466732 1_555
Na3 O44 2.520597 1_555
Na3 O9 2.529023 1_555
Na3 O27 2.543460 1_555
Na4 O1 2.312475 1_555
Na4 O45 2.358871 1_555
Na4 O12 2.466732 1_555
Na4 O20 2.520597 1_555
Na4 O35 2.529023 1_555
Na4 O30 2.543460 1_555
Na5 O46 2.312475 1_555
Na5 O47 2.358871 1_555
Na5 O8 2.466732 1_555
Na5 O0 2.520597 1_555
Na5 O43 2.529023 1_555
Na5 O28 2.543460 1_565
Na6 O16 2.312475 1_555
Na6 O38 2.358871 1_555
Na6 O22 2.466732 1_555
Na6 O41 2.520597 1_555
Na6 O6 2.529023 1_555
Na6 O26 2.543460 1_565
Na7 O5 2.353294 1_554
Na7 O35 2.381977 1_455
Na7 O40 2.426210 1_554
Na7 O3 2.492257 1_554
Na7 O45 2.522696 1_555
Na7 O13 2.533844 1_555
Mo0 O40 1.706097 1_555
Mo0 O6 1.713782 1_555
Mo0 O31 1.949344 1_455
Mo0 O44 2.022578 1_555
Mo0 O27 2.165332 1_555
Mo0 O19 2.202358 1_555
Mo1 O12 1.705050 1_555
Mo1 O47 1.714973 1_545
Mo1 O15 1.943952 1_555
Mo1 O33 2.032205 1_555
Mo1 O37 2.164696 1_555
Mo1 O2 2.200161 1_555
Mo2 O24 1.706097 1_555
Mo2 O43 1.713782 1_555
Mo2 O36 1.949344 1_655
Mo2 O20 2.022578 1_555
Mo2 O30 2.165332 1_555
Mo2 O1 2.202358 1_555
Mo3 O18 1.706097 1_545
Mo3 O35 1.713782 1_555
Mo3 O25 1.949344 1_645
Mo3 O0 2.022578 1_545
Mo3 O28 2.165332 1_555
Mo3 O46 2.202358 1_545
Mo4 O22 1.705050 1_555
Mo4 O39 1.714973 1_555
Mo4 O10 1.943952 1_555
Mo4 O4 2.032205 1_555
Mo4 O7 2.164696 1_555
Mo4 O32 2.200161 1_555
Mo5 O29 1.705050 1_555
Mo5 O38 1.714973 1_545
Mo5 O11 1.943952 1_555
Mo5 O3 2.032205 1_555
Mo5 O13 2.164696 1_556
Mo5 O5 2.200161 1_555
Mo6 O34 1.706097 1_545
Mo6 O9 1.713782 1_555
Mo6 O14 1.949344 1_445
Mo6 O41 2.022578 1_545
Mo6 O26 2.165332 1_555
Mo6 O16 2.202358 1_545
Mo7 O8 1.705050 1_555
Mo7 O45 1.714973 1_555
Mo7 O21 1.943952 1_555
Mo7 O17 2.032205 1_555
Mo7 O42 2.164696 1_554
Mo7 O23 2.200161 1_555
As0 O23 1.674224 1_555
As0 O13 1.687693 1_565
As0 O25 1.707141 1_555
As0 O0 1.708299 1_555
As1 O19 1.674334 1_555
As1 O26 1.686076 1_555
As1 O3 1.707329 1_555
As1 O11 1.708853 1_455
As2 O2 1.674224 1_555
As2 O7 1.687693 1_555
As2 O36 1.707141 1_555
As2 O20 1.708299 1_555
As3 O1 1.674334 1_555
As3 O28 1.686076 1_555
As3 O33 1.707329 1_555
As3 O15 1.708853 1_655
As4 O16 1.674334 1_555
As4 O27 1.686076 1_555
As4 O4 1.707329 1_555
As4 O10 1.708853 1_455
As5 O46 1.674334 1_555
As5 O30 1.686076 1_555
As5 O17 1.707329 1_555
As5 O21 1.708853 1_655
As6 O5 1.674224 1_555
As6 O42 1.687693 1_555
As6 O31 1.707141 1_555
As6 O44 1.708299 1_555
As7 O32 1.674224 1_555
As7 O37 1.687693 1_565
As7 O14 1.707141 1_555
As7 O41 1.708299 1_555
