# generated using pymatgen
data_Ca18Eu2P12(SO16)3
_symmetry_space_group_name_H-M   'P 1'
_cell_length_a   9.84698349
_cell_length_b   19.68394046
_cell_length_c   6.68839172
_cell_angle_alpha   89.96701227
_cell_angle_beta   90.01919247
_cell_angle_gamma   120.10557931
_symmetry_Int_Tables_number   1
_chemical_formula_structural   Ca18Eu2P12(SO16)3
_chemical_formula_sum   'Ca18 Eu2 P12 S3 O48'
_cell_volume   1121.51345450
_cell_formula_units_Z   1
loop_
 _symmetry_equiv_pos_site_id
 _symmetry_equiv_pos_as_xyz
  1  'x, y, z'
loop_
 _atom_site_type_symbol
 _atom_site_label
 _atom_site_symmetry_multiplicity
 _atom_site_fract_x
 _atom_site_fract_y
 _atom_site_fract_z
 _atom_site_occupancy
  Eu  Eu0  1  0.24816856  0.50599780  0.24584779  1
  Eu  Eu1  1  0.75138608  0.49418708  0.74856086  1
  Ca  Ca0  1  0.01851703  0.87879835  0.76169973  1
  Ca  Ca1  1  0.33732345  0.83528068  -0.00427944  1
  Ca  Ca2  1  0.32822167  0.83141374  0.48787330  1
  Ca  Ca3  1  0.24275025  0.63211803  0.74555570  1
  Ca  Ca4  1  0.01614017  0.37631738  0.74617382  1
  Ca  Ca5  1  0.73518232  0.99067507  0.75943074  1
  Ca  Ca6  1  0.75630906  0.87087579  0.23304276  1
  Ca  Ca7  1  0.66069724  0.66511696  0.50659011  1
  Ca  Ca8  1  0.67287794  0.67063831  -0.00211457  1
  Ca  Ca9  1  0.32724208  0.33016892  -0.00164981  1
  Ca  Ca10  1  0.33609540  0.33328092  0.48993086  1
  Ca  Ca11  1  0.24295329  0.13004637  0.76240991  1
  Ca  Ca12  1  0.26552485  0.00770964  0.23647886  1
  Ca  Ca13  1  0.98294363  0.62467999  0.24994098  1
  Ca  Ca14  1  0.75491224  0.36678436  0.25002338  1
  Ca  Ca15  1  0.67457331  0.16972238  0.51091089  1
  Ca  Ca16  1  0.66314419  0.16412478  0.00226933  1
  Ca  Ca17  1  0.98523618  0.12179071  0.23278594  1
  P  P0  1  0.03401344  0.70760687  0.74734077  1
  P  P1  1  0.37725980  0.98479319  0.74236428  1
  P  P2  1  0.41531251  0.69112802  0.24663355  1
  P  P3  1  0.59222629  0.81222449  0.74195156  1
  P  P4  1  0.03229221  0.20402067  0.74262568  1
  P  P5  1  0.38203282  0.48233275  0.74687658  1
  P  P6  1  0.61785841  0.51750156  0.24609041  1
  P  P7  1  0.96957661  0.79837267  0.25223467  1
  P  P8  1  0.40346001  0.18583940  0.25324158  1
  P  P9  1  0.58468508  0.30909845  0.74882723  1
  P  P10  1  0.62643780  0.01491787  0.25239980  1
  P  P11  1  0.96517610  0.29210994  0.24696667  1
  S  S0  1  -0.00062027  0.49981537  0.99963476  1
  S  S1  1  0.00031338  0.00009959  0.99859881  1
  S  S2  1  -0.00028826  0.49997118  0.49839152  1
  O  O0  1  0.27819788  0.95521139  0.93709424  1
  O  O1  1  0.25736672  0.96206137  0.56721657  1
  O  O2  1  0.14712244  0.82690273  0.24380910  1
  O  O3  1  0.12934200  0.79973879  0.74669801  1
  O  O4  1  0.08930911  0.68114046  0.56116748  1
  O  O5  1  0.08760126  0.68060691  0.93456051  1
  O  O6  1  0.46280320  0.93561275  0.72400908  1
  O  O7  1  0.50565703  0.92630623  0.24458416  1
  O  O8  1  0.35171463  0.74835037  0.24498173  1
  O  O9  1  0.40794074  0.76894516  0.72578194  1
  O  O10  1  0.35939176  0.63573904  0.43201149  1
  O  O11  1  0.36275036  0.63742112  0.05837674  1
  O  O12  1  0.66683065  0.87147932  0.56463374  1
  O  O13  1  0.63198792  0.86314492  0.93501779  1
  O  O14  1  0.27134739  0.45372287  0.93158204  1
  O  O15  1  0.27476710  0.45506232  0.55939358  1
  O  O16  1  0.14420919  0.32541461  0.24469438  1
  O  O17  1  0.12969810  0.29603404  0.72672719  1
  O  O18  1  0.59951957  0.73509824  0.25071702  1
  O  O19  1  0.65152585  0.75282094  0.74816675  1
  O  O20  1  0.07709307  0.16765002  0.56539469  1
  O  O21  1  0.09286102  0.18401182  0.93574110  1
  O  O22  1  0.49770320  0.57122729  0.74969211  1
  O  O23  1  0.53054957  0.56584838  0.24782187  1
  O  O24  1  0.46895014  0.43376589  0.74756796  1
  O  O25  1  0.50271529  0.42869050  0.24391010  1
  O  O26  1  0.93013841  0.83895474  0.42389072  1
  O  O27  1  0.90630937  0.81492513  0.05629875  1
  O  O28  1  0.34566068  0.24589076  0.24372359  1
  O  O29  1  0.40092693  0.26520647  0.74645128  1
  O  O30  1  0.87167630  0.70651243  0.27680674  1
  O  O31  1  0.85501549  0.67493633  0.74772201  1
  O  O32  1  0.72731098  0.54702920  0.06156954  1
  O  O33  1  0.72580449  0.54439887  0.43212631  1
  O  O34  1  0.32102607  0.12534434  0.42491514  1
  O  O35  1  0.37185291  0.13700821  0.05797248  1
  O  O36  1  0.63834180  0.36384579  0.56247884  1
  O  O37  1  0.63916242  0.36310001  0.93542373  1
  O  O38  1  0.58703438  0.22942983  0.27900357  1
  O  O39  1  0.64769141  0.25179275  0.74991278  1
  O  O40  1  0.49680555  0.07382193  0.74775531  1
  O  O41  1  0.54108692  0.06399950  0.27994254  1
  O  O42  1  0.91189272  0.32011374  0.43226651  1
  O  O43  1  0.90793850  0.31677365  0.05927523  1
  O  O44  1  0.87117815  0.20007388  0.25198754  1
  O  O45  1  0.85445698  0.17435071  0.74951842  1
  O  O46  1  0.72127154  0.04611730  0.05565768  1
  O  O47  1  0.74852792  0.03480761  0.42249090  1
loop_
_geom_bond_atom_site_label_1
_geom_bond_atom_site_label_2
_geom_bond_distance
_geom_bond_site_symmetry_2
Eu0 O15 2.394238 1_555
Eu0 O14 2.401546 1_554
Eu0 O23 2.415276 1_555
Eu0 O10 2.543363 1_555
Eu0 O11 2.570321 1_555
Eu0 S0 2.902882 1_554
Eu0 S2 2.926459 1_555
Eu0 O16 3.167448 1_555
Eu1 O33 2.401381 1_555
Eu1 O32 2.402322 1_556
Eu1 O24 2.414757 1_555
Eu1 O36 2.551132 1_555
Eu1 O37 2.564743 1_555
Eu1 S2 2.918079 1_655
Eu1 S0 2.919184 1_655
Eu1 O31 3.171357 1_555
Ca0 O27 2.299786 1_456
Ca0 O3 2.307964 1_555
Ca0 O26 2.406938 1_455
Ca0 O1 2.458132 1_555
Ca0 O0 2.513719 1_555
Ca0 S1 2.945784 1_565
Ca0 O19 3.197937 1_455
Ca1 O7 2.398044 1_555
Ca1 O8 2.442801 1_555
Ca1 O2 2.445447 1_555
Ca1 O3 2.453468 1_554
Ca1 O6 2.505802 1_554
Ca1 O9 2.522419 1_554
Ca1 O13 2.699761 1_554
Ca1 O0 2.728234 1_554
Ca1 O5 2.823790 1_554
Ca2 O9 2.371800 1_555
Ca2 O2 2.385804 1_555
Ca2 O6 2.394364 1_555
Ca2 O8 2.397648 1_555
Ca2 O7 2.431852 1_555
Ca2 O3 2.448842 1_555
Ca2 O4 2.746372 1_555
Ca2 O1 3.030456 1_555
Ca2 O12 3.060116 1_555
Ca3 O9 2.349899 1_555
Ca3 O10 2.375175 1_555
Ca3 O11 2.378995 1_556
Ca3 O4 2.488976 1_555
Ca3 O5 2.511681 1_555
Ca3 S2 2.997274 1_555
Ca3 S0 3.024856 1_555
Ca3 O22 3.280027 1_555
Ca4 O17 2.353227 1_555
Ca4 O42 2.355350 1_455
Ca4 O43 2.374925 1_456
Ca4 O14 2.516644 1_555
Ca4 O15 2.547301 1_555
Ca4 S2 3.014499 1_555
Ca4 S0 3.036102 1_555
Ca4 O39 3.201640 1_455
Ca5 O46 2.299535 1_566
Ca5 O6 2.346951 1_555
Ca5 O47 2.394573 1_565
Ca5 O12 2.464567 1_555
Ca5 O13 2.480278 1_555
Ca5 S1 2.986794 1_665
Ca5 O45 3.193004 1_565
Ca6 O13 2.303671 1_554
Ca6 O18 2.323984 1_555
Ca6 O12 2.388930 1_555
Ca6 O26 2.455732 1_555
Ca6 O27 2.535078 1_555
Ca6 S1 2.927233 1_664
Ca6 O7 3.160710 1_555
Ca7 O30 2.375810 1_555
Ca7 O22 2.378637 1_555
Ca7 O19 2.399764 1_555
Ca7 O31 2.434541 1_555
Ca7 O23 2.438489 1_555
Ca7 O18 2.453227 1_555
Ca7 O10 2.768423 1_555
Ca7 O33 2.799157 1_555
Ca8 O19 2.405945 1_554
Ca8 O31 2.423431 1_554
Ca8 O18 2.431889 1_555
Ca8 O23 2.472018 1_555
Ca8 O22 2.485121 1_554
Ca8 O30 2.534414 1_555
Ca8 O27 2.637057 1_555
Ca8 O32 2.774119 1_555
Ca8 O11 2.813265 1_555
Ca9 O28 2.403501 1_555
Ca9 O16 2.409246 1_555
Ca9 O29 2.436018 1_554
Ca9 O24 2.462104 1_554
Ca9 O25 2.466601 1_555
Ca9 O17 2.494725 1_554
Ca9 O21 2.668055 1_554
Ca9 O14 2.785418 1_554
Ca9 O37 2.834520 1_554
Ca10 O17 2.383802 1_555
Ca10 O25 2.415298 1_555
Ca10 O28 2.417752 1_555
Ca10 O16 2.447300 1_555
Ca10 O24 2.449410 1_555
Ca10 O29 2.449799 1_555
Ca10 O36 2.767368 1_555
Ca10 O15 2.789360 1_555
Ca10 O20 3.007671 1_555
Ca11 O29 2.314600 1_555
Ca11 O35 2.315569 1_556
Ca11 O34 2.401617 1_555
Ca11 O20 2.482308 1_555
Ca11 O21 2.496851 1_555
Ca11 S1 2.934922 1_555
Ca11 O40 3.202871 1_555
Ca12 O0 2.285817 1_544
Ca12 O1 2.373319 1_545
Ca12 O41 2.378813 1_555
Ca12 O34 2.445838 1_555
Ca12 O35 2.514622 1_555
Ca12 S1 2.996495 1_554
Ca12 O2 3.140910 1_545
Ca13 O4 2.344927 1_655
Ca13 O5 2.363076 1_654
Ca13 O30 2.366074 1_555
Ca13 O33 2.525682 1_555
Ca13 O32 2.529874 1_555
Ca13 S2 3.035820 1_655
Ca13 S0 3.045300 1_654
Ca13 O8 3.200830 1_655
Ca14 O38 2.365604 1_555
Ca14 O36 2.371323 1_555
Ca14 O37 2.376454 1_554
Ca14 O42 2.478138 1_555
Ca14 O43 2.521533 1_555
Ca14 S2 3.017587 1_655
Ca14 S0 3.021657 1_654
Ca14 O25 3.269463 1_555
Ca15 O45 2.351410 1_555
Ca15 O38 2.354465 1_555
Ca15 O39 2.380625 1_555
Ca15 O41 2.388122 1_555
Ca15 O40 2.412566 1_555
Ca15 O44 2.438176 1_555
Ca15 O42 2.749571 1_555
Ca16 O40 2.412686 1_554
Ca16 O44 2.455931 1_555
Ca16 O45 2.463441 1_554
Ca16 O39 2.471798 1_554
Ca16 O41 2.529613 1_555
Ca16 O38 2.571007 1_555
Ca16 O35 2.667523 1_555
Ca16 O46 2.680199 1_555
Ca16 O43 2.778302 1_555
Ca17 O21 2.294960 1_654
Ca17 O44 2.321388 1_555
Ca17 O20 2.400788 1_655
Ca17 O47 2.443413 1_555
Ca17 O46 2.548393 1_555
Ca17 S1 2.928214 1_654
Ca17 O28 3.141864 1_655
S0 S2 3.335883 1_556
S0 S2 3.352512 1_555
O0 P1 1.554694 1_555
O0 S1 3.296064 1_565
O1 P1 1.560782 1_555
O2 P7 1.546014 1_455
O3 P0 1.569153 1_555
O4 P0 1.550538 1_555
O4 S2 3.243009 1_555
O5 P0 1.552105 1_555
O5 S0 3.241218 1_555
O6 P1 1.574807 1_555
O7 P10 1.542254 1_565
O8 P2 1.539029 1_555
O9 P3 1.574657 1_555
O10 P2 1.557511 1_555
O10 S2 3.222963 1_555
O11 P2 1.556628 1_555
O11 S0 3.251379 1_554
O12 P3 1.563979 1_555
O13 P3 1.559761 1_555
O13 S1 3.285464 1_665
O14 P5 1.554215 1_555
O14 S0 3.262077 1_555
O15 P5 1.551550 1_555
O15 S2 3.268700 1_555
O16 P11 1.542251 1_455
O17 P4 1.571234 1_555
O18 P2 1.570057 1_555
O19 P3 1.547523 1_555
O20 P4 1.558996 1_555
O21 P4 1.553608 1_555
O21 S1 3.286550 1_555
O22 P5 1.536265 1_555
O23 P6 1.570259 1_555
O24 P5 1.570751 1_555
O25 P6 1.534078 1_555
O26 P7 1.555513 1_555
O27 P7 1.553791 1_555
O27 S1 3.302333 1_664
O28 P8 1.549198 1_555
O29 P9 1.566060 1_555
O30 P7 1.573823 1_555
O31 P0 1.543755 1_655
O32 P6 1.547315 1_555
O32 S0 3.272852 1_654
O33 P6 1.547160 1_555
O33 S2 3.255895 1_655
O34 P8 1.557128 1_555
O35 P8 1.558059 1_555
O35 S1 3.303714 1_554
O36 P9 1.556154 1_555
O36 S2 3.234224 1_655
O37 P9 1.550575 1_555
O37 S0 3.229928 1_655
O38 P8 1.574011 1_555
O39 P9 1.536041 1_555
O40 P1 1.545512 1_545
O41 P10 1.577514 1_555
O42 P11 1.551293 1_555
O42 S2 3.226057 1_655
O43 P11 1.550029 1_555
O43 S0 3.270382 1_654
O44 P11 1.567683 1_555
O45 P4 1.543942 1_655
O46 P10 1.550910 1_555
O46 S1 3.318743 1_654
O47 P10 1.555713 1_555
