# generated using pymatgen
data_TbH2Br
_symmetry_space_group_name_H-M   'P 1'
_cell_length_a   21.36064716
_cell_length_b   21.36064716
_cell_length_c   21.36064715
_cell_angle_alpha   20.33795246
_cell_angle_beta   20.33795246
_cell_angle_gamma   20.33795860
_symmetry_Int_Tables_number   1
_chemical_formula_structural   TbH2Br
_chemical_formula_sum   'Tb16 H32 Br16'
_cell_volume   1030.29253365
_cell_formula_units_Z   16
loop_
 _symmetry_equiv_pos_site_id
 _symmetry_equiv_pos_as_xyz
  1  'x, y, z'
loop_
 _atom_site_type_symbol
 _atom_site_label
 _atom_site_symmetry_multiplicity
 _atom_site_fract_x
 _atom_site_fract_y
 _atom_site_fract_z
 _atom_site_occupancy
  Tb  Tb0_0  1  0.44233615  0.44233615  0.44233615  1
  Tb  Tb0_1  1  0.44233615  0.44233615  0.94233615  1
  Tb  Tb0_2  1  0.44233615  0.94233615  0.44233615  1
  Tb  Tb0_3  1  0.44233615  0.94233615  0.94233615  1
  Tb  Tb0_4  1  0.94233615  0.44233615  0.44233615  1
  Tb  Tb0_5  1  0.94233615  0.44233615  0.94233615  1
  Tb  Tb0_6  1  0.94233615  0.94233615  0.44233615  1
  Tb  Tb0_7  1  0.94233615  0.94233615  0.94233615  1
  Tb  Tb1_0  1  0.05766385  0.05766385  0.05766385  1
  Tb  Tb1_1  1  0.05766385  0.05766385  0.55766385  1
  Tb  Tb1_2  1  0.05766385  0.55766385  0.05766385  1
  Tb  Tb1_3  1  0.05766385  0.55766385  0.55766385  1
  Tb  Tb1_4  1  0.55766385  0.05766385  0.05766385  1
  Tb  Tb1_5  1  0.55766385  0.05766385  0.55766385  1
  Tb  Tb1_6  1  0.55766385  0.55766385  0.05766385  1
  Tb  Tb1_7  1  0.55766385  0.55766385  0.55766385  1
  H  H0_0  1  0.40688418  0.40688418  0.40688418  1
  H  H0_1  1  0.40688418  0.40688418  0.90688418  1
  H  H0_2  1  0.40688418  0.90688418  0.40688418  1
  H  H0_3  1  0.40688418  0.90688418  0.90688418  1
  H  H0_4  1  0.90688418  0.40688418  0.40688418  1
  H  H0_5  1  0.90688418  0.40688418  0.90688418  1
  H  H0_6  1  0.90688418  0.90688418  0.40688418  1
  H  H0_7  1  0.90688418  0.90688418  0.90688418  1
  H  H1_0  1  0.09311582  0.09311582  0.09311582  1
  H  H1_1  1  0.09311582  0.09311582  0.59311582  1
  H  H1_2  1  0.09311582  0.59311582  0.09311582  1
  H  H1_3  1  0.09311582  0.59311582  0.59311582  1
  H  H1_4  1  0.59311582  0.09311582  0.09311582  1
  H  H1_5  1  0.59311582  0.09311582  0.59311582  1
  H  H1_6  1  0.59311582  0.59311582  0.09311582  1
  H  H1_7  1  0.59311582  0.59311582  0.59311582  1
  H  H2_0  1  0.27261959  0.27261959  0.27261959  1
  H  H2_1  1  0.27261959  0.27261959  0.77261959  1
  H  H2_2  1  0.27261960  0.77261960  0.27261959  1
  H  H2_3  1  0.27261959  0.77261959  0.77261959  1
  H  H2_4  1  0.77261960  0.27261960  0.27261959  1
  H  H2_5  1  0.77261959  0.27261959  0.77261959  1
  H  H2_6  1  0.77261960  0.77261960  0.27261959  1
  H  H2_7  1  0.77261960  0.77261960  0.77261959  1
  H  H3_0  1  0.22738041  0.22738041  0.22738040  1
  H  H3_1  1  0.22738040  0.22738040  0.72738040  1
  H  H3_2  1  0.22738041  0.72738041  0.22738040  1
  H  H3_3  1  0.22738041  0.72738041  0.72738040  1
  H  H3_4  1  0.72738041  0.22738041  0.22738040  1
  H  H3_5  1  0.72738041  0.22738041  0.72738040  1
  H  H3_6  1  0.72738041  0.72738041  0.22738040  1
  H  H3_7  1  0.72738041  0.72738041  0.72738040  1
  Br  Br0_0  1  0.36006047  0.36006047  0.36006047  1
  Br  Br0_1  1  0.36006047  0.36006047  0.86006047  1
  Br  Br0_2  1  0.36006047  0.86006047  0.36006047  1
  Br  Br0_3  1  0.36006047  0.86006047  0.86006047  1
  Br  Br0_4  1  0.86006047  0.36006047  0.36006047  1
  Br  Br0_5  1  0.86006047  0.36006047  0.86006047  1
  Br  Br0_6  1  0.86006047  0.86006047  0.36006047  1
  Br  Br0_7  1  0.86006047  0.86006047  0.86006047  1
  Br  Br1_0  1  0.13993953  0.13993953  0.13993953  1
  Br  Br1_1  1  0.13993953  0.13993953  0.63993953  1
  Br  Br1_2  1  0.13993953  0.63993953  0.13993953  1
  Br  Br1_3  1  0.13993953  0.63993953  0.63993953  1
  Br  Br1_4  1  0.63993953  0.13993953  0.13993953  1
  Br  Br1_5  1  0.63993953  0.13993953  0.63993953  1
  Br  Br1_6  1  0.63993953  0.63993953  0.13993953  1
  Br  Br1_7  1  0.63993953  0.63993953  0.63993953  1
loop_
_geom_bond_atom_site_label_1
_geom_bond_atom_site_label_2
_geom_bond_distance
_geom_bond_site_symmetry_2
H0_0 Tb0_0 2.224121 1_555
H0_0 H3_1 2.321506 1_555
H0_0 H3_2 2.321507 1_555
H0_0 H3_4 2.321507 1_555
H0_0 Tb1_6 2.394617 1_555
H0_0 Tb1_5 2.394618 1_555
H0_0 Tb1_3 2.394618 1_555
H0_0 H1_6 2.499478 1_555
H0_0 H1_5 2.499478 1_555
H0_0 H1_3 2.499478 1_555
H0_1 Tb0_1 2.224121 1_555
H0_1 H3_0 2.321506 1_556
H0_1 H3_3 2.321507 1_555
H0_1 H3_5 2.321507 1_555
H0_1 Tb1_7 2.394617 1_555
H0_1 Tb1_4 2.394618 1_556
H0_1 Tb1_2 2.394618 1_556
H0_1 H1_7 2.499478 1_555
H0_1 H1_4 2.499478 1_556
H0_1 H1_2 2.499478 1_556
H0_2 Tb0_2 2.224121 1_555
H0_2 H3_3 2.321506 1_555
H0_2 H3_6 2.321507 1_555
H0_2 H3_0 2.321507 1_565
H0_2 Tb1_4 2.394617 1_565
H0_2 Tb1_1 2.394618 1_565
H0_2 Tb1_7 2.394618 1_555
H0_2 H1_4 2.499478 1_565
H0_2 H1_1 2.499478 1_565
H0_2 H1_7 2.499478 1_555
H0_3 Tb0_3 2.224121 1_555
H0_3 H3_2 2.321506 1_556
H0_3 H3_7 2.321507 1_555
H0_3 H3_1 2.321507 1_565
H0_3 Tb1_5 2.394617 1_565
H0_3 Tb1_6 2.394618 1_556
H0_3 Tb1_0 2.394618 1_566
H0_3 H1_5 2.499478 1_565
H0_3 H1_0 2.499478 1_566
H0_3 H1_6 2.499478 1_556
H0_4 Tb0_4 2.224121 1_555
H0_4 H3_5 2.321506 1_555
H0_4 H3_6 2.321507 1_555
H0_4 H3_0 2.321507 1_655
H0_4 Tb1_2 2.394617 1_655
H0_4 Tb1_1 2.394618 1_655
H0_4 Tb1_7 2.394618 1_555
H0_4 H1_2 2.499478 1_655
H0_4 H1_1 2.499478 1_655
H0_4 H1_7 2.499478 1_555
H0_5 Tb0_5 2.224121 1_555
H0_5 H3_4 2.321506 1_556
H0_5 H3_7 2.321507 1_555
H0_5 H3_1 2.321507 1_655
H0_5 Tb1_3 2.394617 1_655
H0_5 Tb1_6 2.394618 1_556
H0_5 Tb1_0 2.394618 1_656
H0_5 H1_3 2.499478 1_655
H0_5 H1_0 2.499478 1_656
H0_5 H1_6 2.499478 1_556
H0_6 Tb0_6 2.224121 1_555
H0_6 H3_7 2.321506 1_555
H0_6 H3_4 2.321507 1_565
H0_6 H3_2 2.321507 1_655
H0_6 Tb1_0 2.394617 1_665
H0_6 Tb1_3 2.394618 1_655
H0_6 Tb1_5 2.394618 1_565
H0_6 H1_0 2.499478 1_665
H0_6 H1_5 2.499478 1_565
H0_6 H1_3 2.499478 1_655
H0_7 Tb0_7 2.224121 1_555
H0_7 H3_6 2.321506 1_556
H0_7 H3_5 2.321507 1_565
H0_7 H3_3 2.321507 1_655
H0_7 Tb1_1 2.394617 1_665
H0_7 Tb1_4 2.394618 1_566
H0_7 Tb1_2 2.394618 1_656
H0_7 H1_1 2.499478 1_665
H0_7 H1_4 2.499478 1_566
H0_7 H1_2 2.499478 1_656
H1_0 Tb1_0 2.224121 1_555
H1_0 H2_1 2.321506 1_554
H1_0 H2_4 2.321507 1_455
H1_0 H2_2 2.321507 1_545
H1_0 Tb0_6 2.394617 1_445
H1_0 Tb0_5 2.394618 1_454
H1_0 Tb0_3 2.394618 1_544
H1_1 Tb1_1 2.224121 1_555
H1_1 H2_0 2.321506 1_555
H1_1 H2_3 2.321507 1_545
H1_1 H2_5 2.321507 1_455
H1_1 Tb0_7 2.394617 1_445
H1_1 Tb0_2 2.394618 1_545
H1_1 Tb0_4 2.394618 1_455
H1_2 Tb1_2 2.224121 1_555
H1_2 H2_3 2.321506 1_554
H1_2 H2_0 2.321507 1_555
H1_2 H2_6 2.321507 1_455
H1_2 Tb0_4 2.394617 1_455
H1_2 Tb0_1 2.394618 1_554
H1_2 Tb0_7 2.394618 1_454
H1_3 Tb1_3 2.224121 1_555
H1_3 H2_2 2.321506 1_555
H1_3 H2_1 2.321507 1_555
H1_3 H2_7 2.321507 1_455
H1_3 Tb0_5 2.394617 1_455
H1_3 Tb0_6 2.394618 1_455
H1_3 Tb0_0 2.394618 1_555
H1_4 Tb1_4 2.224121 1_555
H1_4 H2_5 2.321506 1_554
H1_4 H2_0 2.321507 1_555
H1_4 H2_6 2.321507 1_545
H1_4 Tb0_2 2.394617 1_545
H1_4 Tb0_1 2.394618 1_554
H1_4 Tb0_7 2.394618 1_544
H1_5 Tb1_5 2.224121 1_555
H1_5 H2_4 2.321506 1_555
H1_5 H2_1 2.321507 1_555
H1_5 H2_7 2.321507 1_545
H1_5 Tb0_3 2.394617 1_545
H1_5 Tb0_6 2.394618 1_545
H1_5 Tb0_0 2.394618 1_555
H1_6 Tb1_6 2.224121 1_555
H1_6 H2_7 2.321506 1_554
H1_6 H2_4 2.321507 1_555
H1_6 H2_2 2.321507 1_555
H1_6 Tb0_0 2.394617 1_555
H1_6 Tb0_3 2.394618 1_554
H1_6 Tb0_5 2.394618 1_554
H1_7 Tb1_7 2.224121 1_555
H1_7 H2_6 2.321506 1_555
H1_7 H2_5 2.321507 1_555
H1_7 H2_3 2.321507 1_555
H1_7 Tb0_1 2.394617 1_555
H1_7 Tb0_4 2.394618 1_555
H1_7 Tb0_2 2.394618 1_555
H2_0 Tb0_1 2.185729 1_554
H2_0 Tb0_2 2.185730 1_545
H2_0 Tb0_4 2.185730 1_455
H2_0 H3_0 2.838133 1_555
H2_1 Tb0_0 2.185729 1_555
H2_1 Tb0_3 2.185730 1_545
H2_1 Tb0_5 2.185730 1_455
H2_1 H3_1 2.838133 1_555
H2_2 Tb0_3 2.185729 1_554
H2_2 Tb0_6 2.185730 1_455
H2_2 Tb0_0 2.185730 1_555
H2_2 H3_2 2.838133 1_555
H2_3 Tb0_2 2.185729 1_555
H2_3 Tb0_1 2.185730 1_555
H2_3 Tb0_7 2.185730 1_455
H2_3 H3_3 2.838133 1_555
H2_4 Tb0_5 2.185729 1_554
H2_4 Tb0_6 2.185730 1_545
H2_4 Tb0_0 2.185730 1_555
H2_4 H3_4 2.838133 1_555
H2_5 Tb0_4 2.185729 1_555
H2_5 Tb0_1 2.185730 1_555
H2_5 Tb0_7 2.185730 1_545
H2_5 H3_5 2.838133 1_555
H2_6 Tb0_7 2.185729 1_554
H2_6 Tb0_4 2.185730 1_555
H2_6 Tb0_2 2.185730 1_555
H2_6 H3_6 2.838133 1_555
H2_7 Tb0_6 2.185729 1_555
H2_7 Tb0_5 2.185730 1_555
H2_7 Tb0_3 2.185730 1_555
H2_7 H3_7 2.838133 1_555
H3_0 Tb1_1 2.185729 1_555
H3_0 Tb1_2 2.185730 1_555
H3_0 Tb1_4 2.185730 1_555
H3_1 Tb1_0 2.185729 1_556
H3_1 Tb1_3 2.185730 1_555
H3_1 Tb1_5 2.185730 1_555
H3_2 Tb1_3 2.185729 1_555
H3_2 Tb1_6 2.185730 1_555
H3_2 Tb1_0 2.185730 1_565
H3_3 Tb1_2 2.185729 1_556
H3_3 Tb1_1 2.185730 1_565
H3_3 Tb1_7 2.185730 1_555
H3_4 Tb1_5 2.185729 1_555
H3_4 Tb1_6 2.185730 1_555
H3_4 Tb1_0 2.185730 1_655
H3_5 Tb1_4 2.185729 1_556
H3_5 Tb1_1 2.185730 1_655
H3_5 Tb1_7 2.185730 1_555
H3_6 Tb1_7 2.185729 1_555
H3_6 Tb1_4 2.185730 1_565
H3_6 Tb1_2 2.185730 1_655
H3_7 Tb1_6 2.185729 1_556
H3_7 Tb1_5 2.185730 1_565
H3_7 Tb1_3 2.185730 1_655
Br0_0 Tb1_6 2.916797 1_555
Br0_0 Tb1_5 2.916797 1_555
Br0_0 Tb1_3 2.916797 1_555
Br0_0 H0_0 2.937540 1_555
Br0_0 H3_1 3.047463 1_555
Br0_0 H3_2 3.047464 1_555
Br0_0 H3_4 3.047464 1_555
Br0_0 Br0_3 3.771261 1_554
Br0_0 Br0_5 3.771261 1_554
Br0_0 Br0_5 3.771261 1_455
Br0_0 Br0_3 3.771261 1_545
Br0_0 Br0_6 3.771262 1_545
Br0_0 Br0_6 3.771262 1_455
Br0_0 Br1_1 3.998359 1_555
Br0_0 Br1_2 3.998359 1_555
Br0_0 Br1_4 3.998359 1_555
Br0_1 Tb1_7 2.916797 1_555
Br0_1 Tb1_2 2.916797 1_556
Br0_1 Tb1_4 2.916797 1_556
Br0_1 H0_1 2.937540 1_555
Br0_1 H3_0 3.047463 1_556
Br0_1 H3_5 3.047464 1_555
Br0_1 H3_3 3.047464 1_555
Br0_1 Br0_2 3.771261 1_555
Br0_1 Br0_4 3.771261 1_555
Br0_1 Br0_2 3.771261 1_546
Br0_1 Br0_4 3.771261 1_456
Br0_1 Br0_7 3.771262 1_455
Br0_1 Br0_7 3.771262 1_545
Br0_1 Br1_0 3.998359 1_556
Br0_1 Br1_3 3.998359 1_555
Br0_1 Br1_5 3.998359 1_555
Br0_2 Tb1_4 2.916797 1_565
Br0_2 Tb1_7 2.916797 1_555
Br0_2 Tb1_1 2.916797 1_565
Br0_2 H0_2 2.937540 1_555
Br0_2 H3_3 3.047463 1_555
Br0_2 H3_0 3.047464 1_565
Br0_2 H3_6 3.047464 1_555
Br0_2 Br0_7 3.771261 1_455
Br0_2 Br0_7 3.771261 1_554
Br0_2 Br0_4 3.771262 1_555
Br0_2 Br0_4 3.771262 1_465
Br0_2 Br1_3 3.998359 1_555
Br0_2 Br1_6 3.998359 1_555
Br0_2 Br1_0 3.998359 1_565
Br0_3 Tb1_5 2.916797 1_565
Br0_3 Tb1_0 2.916797 1_566
Br0_3 Tb1_6 2.916797 1_556
Br0_3 H0_3 2.937540 1_555
Br0_3 H3_2 3.047463 1_556
Br0_3 H3_1 3.047464 1_565
Br0_3 H3_7 3.047464 1_555
Br0_3 Br0_6 3.771261 1_555
Br0_3 Br0_6 3.771261 1_456
Br0_3 Br0_5 3.771262 1_555
Br0_3 Br0_5 3.771262 1_465
Br0_3 Br1_2 3.998359 1_556
Br0_3 Br1_1 3.998359 1_565
Br0_3 Br1_7 3.998359 1_555
Br0_4 Tb1_2 2.916797 1_655
Br0_4 Tb1_7 2.916797 1_555
Br0_4 Tb1_1 2.916797 1_655
Br0_4 H0_4 2.937540 1_555
Br0_4 H3_5 3.047463 1_555
Br0_4 H3_0 3.047464 1_655
Br0_4 H3_6 3.047464 1_555
Br0_4 Br0_7 3.771261 1_554
Br0_4 Br0_7 3.771261 1_545
Br0_4 Br1_5 3.998359 1_555
Br0_4 Br1_6 3.998359 1_555
Br0_4 Br1_0 3.998359 1_655
Br0_5 Tb1_3 2.916797 1_655
Br0_5 Tb1_6 2.916797 1_556
Br0_5 Tb1_0 2.916797 1_656
Br0_5 H0_5 2.937540 1_555
Br0_5 H3_4 3.047463 1_556
Br0_5 H3_1 3.047464 1_655
Br0_5 H3_7 3.047464 1_555
Br0_5 Br0_6 3.771261 1_546
Br0_5 Br0_6 3.771261 1_555
Br0_5 Br1_4 3.998359 1_556
Br0_5 Br1_1 3.998359 1_655
Br0_5 Br1_7 3.998359 1_555
Br0_6 Tb1_0 2.916797 1_665
Br0_6 Tb1_5 2.916797 1_565
Br0_6 Tb1_3 2.916797 1_655
Br0_6 H0_6 2.937540 1_555
Br0_6 H3_7 3.047463 1_555
Br0_6 H3_4 3.047464 1_565
Br0_6 H3_2 3.047464 1_655
Br0_6 Br1_7 3.998359 1_555
Br0_6 Br1_2 3.998359 1_655
Br0_6 Br1_4 3.998359 1_565
Br0_7 Tb1_1 2.916797 1_665
Br0_7 Tb1_4 2.916797 1_566
Br0_7 Tb1_2 2.916797 1_656
Br0_7 H0_7 2.937540 1_555
Br0_7 H3_6 3.047463 1_556
Br0_7 H3_5 3.047464 1_565
Br0_7 H3_3 3.047464 1_655
Br0_7 Br1_6 3.998359 1_556
Br0_7 Br1_5 3.998359 1_565
Br0_7 Br1_3 3.998359 1_655
Br1_0 Tb0_6 2.916797 1_445
Br1_0 Tb0_3 2.916797 1_544
Br1_0 Tb0_5 2.916797 1_454
Br1_0 H1_0 2.937540 1_555
Br1_0 H2_1 3.047463 1_554
Br1_0 H2_2 3.047464 1_545
Br1_0 H2_4 3.047464 1_455
Br1_0 Br1_5 3.771261 1_554
Br1_0 Br1_3 3.771261 1_545
Br1_0 Br1_5 3.771261 1_455
Br1_0 Br1_3 3.771261 1_554
Br1_0 Br1_6 3.771262 1_455
Br1_0 Br1_6 3.771262 1_545
Br1_1 Tb0_7 2.916797 1_445
Br1_1 Tb0_2 2.916797 1_545
Br1_1 Tb0_4 2.916797 1_455
Br1_1 H1_1 2.937540 1_555
Br1_1 H2_0 3.047463 1_555
Br1_1 H2_5 3.047464 1_455
Br1_1 H2_3 3.047464 1_545
Br1_1 Br1_2 3.771261 1_555
Br1_1 Br1_4 3.771261 1_456
Br1_1 Br1_4 3.771261 1_555
Br1_1 Br1_2 3.771261 1_546
Br1_1 Br1_7 3.771262 1_545
Br1_1 Br1_7 3.771262 1_455
Br1_2 Tb0_4 2.916797 1_455
Br1_2 Tb0_7 2.916797 1_454
Br1_2 Tb0_1 2.916797 1_554
Br1_2 H1_2 2.937540 1_555
Br1_2 H2_3 3.047463 1_554
Br1_2 H2_6 3.047464 1_455
Br1_2 H2_0 3.047464 1_555
Br1_2 Br1_7 3.771261 1_554
Br1_2 Br1_7 3.771261 1_455
Br1_2 Br1_4 3.771262 1_555
Br1_2 Br1_4 3.771262 1_465
Br1_3 Tb0_5 2.916797 1_455
Br1_3 Tb0_0 2.916797 1_555
Br1_3 Tb0_6 2.916797 1_455
Br1_3 H1_3 2.937540 1_555
Br1_3 H2_2 3.047463 1_555
Br1_3 H2_7 3.047464 1_455
Br1_3 H2_1 3.047464 1_555
Br1_3 Br1_6 3.771261 1_456
Br1_3 Br1_6 3.771261 1_555
Br1_3 Br1_5 3.771262 1_465
Br1_3 Br1_5 3.771262 1_555
Br1_4 Tb0_2 2.916797 1_545
Br1_4 Tb0_7 2.916797 1_544
Br1_4 Tb0_1 2.916797 1_554
Br1_4 H1_4 2.937540 1_555
Br1_4 H2_5 3.047463 1_554
Br1_4 H2_6 3.047464 1_545
Br1_4 H2_0 3.047464 1_555
Br1_4 Br1_7 3.771261 1_545
Br1_4 Br1_7 3.771261 1_554
Br1_5 Tb0_3 2.916797 1_545
Br1_5 Tb0_0 2.916797 1_555
Br1_5 Tb0_6 2.916797 1_545
Br1_5 H1_5 2.937540 1_555
Br1_5 H2_4 3.047463 1_555
Br1_5 H2_7 3.047464 1_545
Br1_5 H2_1 3.047464 1_555
Br1_5 Br1_6 3.771261 1_546
Br1_5 Br1_6 3.771261 1_555
Br1_6 Tb0_0 2.916797 1_555
Br1_6 Tb0_5 2.916797 1_554
Br1_6 Tb0_3 2.916797 1_554
Br1_6 H1_6 2.937540 1_555
Br1_6 H2_7 3.047463 1_554
Br1_6 H2_2 3.047464 1_555
Br1_6 H2_4 3.047464 1_555
Br1_7 Tb0_1 2.916797 1_555
Br1_7 Tb0_4 2.916797 1_555
Br1_7 Tb0_2 2.916797 1_555
Br1_7 H1_7 2.937540 1_555
Br1_7 H2_6 3.047463 1_555
Br1_7 H2_5 3.047464 1_555
Br1_7 H2_3 3.047464 1_555
