# generated using pymatgen
data_Fe(SbO2)2
_symmetry_space_group_name_H-M   'P 1'
_cell_length_a   8.57217300
_cell_length_b   8.57217300
_cell_length_c   6.61358100
_cell_angle_alpha   90.00000000
_cell_angle_beta   90.00000000
_cell_angle_gamma   90.00000000
_symmetry_Int_Tables_number   1
_chemical_formula_structural   Fe(SbO2)2
_chemical_formula_sum   'Fe4 Sb8 O16'
_cell_volume   485.98015070
_cell_formula_units_Z   4
loop_
 _symmetry_equiv_pos_site_id
 _symmetry_equiv_pos_as_xyz
  1  'x, y, z'
loop_
 _atom_site_type_symbol
 _atom_site_label
 _atom_site_symmetry_multiplicity
 _atom_site_fract_x
 _atom_site_fract_y
 _atom_site_fract_z
 _atom_site_occupancy
  Fe  Fe0  1  0.50000000  0.00000000  0.76066900  1
  Fe  Fe1  1  0.00000000  0.50000000  0.73933100  1
  Fe  Fe2  1  0.50000000  0.00000000  0.23933100  1
  Fe  Fe3  1  0.00000000  0.50000000  0.26066900  1
  Sb  Sb0  1  0.30801000  0.43881000  0.00000000  1
  Sb  Sb1  1  0.17962800  0.79642700  0.00000000  1
  Sb  Sb2  1  0.20357300  0.17962800  0.50000000  1
  Sb  Sb3  1  0.82037200  0.20357300  0.00000000  1
  Sb  Sb4  1  0.56119000  0.30801000  0.50000000  1
  Sb  Sb5  1  0.43881000  0.69199000  0.50000000  1
  Sb  Sb6  1  0.69199000  0.56119000  0.00000000  1
  Sb  Sb7  1  0.79642700  0.82037200  0.50000000  1
  O  O0  1  0.10588500  0.38397900  0.50000000  1
  O  O1  1  0.90695900  0.63375900  0.00000000  1
  O  O2  1  0.38397900  0.89411500  0.00000000  1
  O  O3  1  0.62341300  0.76520000  0.70130500  1
  O  O4  1  0.62341300  0.76520000  0.29869500  1
  O  O5  1  0.09304100  0.36624100  0.00000000  1
  O  O6  1  0.36624100  0.90695900  0.50000000  1
  O  O7  1  0.37658700  0.23480000  0.29869500  1
  O  O8  1  0.37658700  0.23480000  0.70130500  1
  O  O9  1  0.76520000  0.37658700  0.20130500  1
  O  O10  1  0.89411500  0.61602100  0.50000000  1
  O  O11  1  0.23480000  0.62341300  0.20130500  1
  O  O12  1  0.76520000  0.37658700  0.79869500  1
  O  O13  1  0.63375900  0.09304100  0.50000000  1
  O  O14  1  0.61602100  0.10588500  0.00000000  1
  O  O15  1  0.23480000  0.62341300  0.79869500  1
loop_
_geom_bond_atom_site_label_1
_geom_bond_atom_site_label_2
_geom_bond_distance
_geom_bond_site_symmetry_2
Fe0 O14 2.078065 1_556
Fe0 O2 2.078065 1_546
Fe0 O13 2.218746 1_555
Fe0 O6 2.218746 1_545
Fe0 O3 2.307483 1_545
Fe0 O8 2.307483 1_555
Fe1 O10 2.078065 1_455
Fe1 O0 2.078065 1_555
Fe1 O1 2.218746 1_456
Fe1 O5 2.218746 1_556
Fe1 O15 2.307483 1_555
Fe1 O12 2.307483 1_455
Fe2 O14 2.078065 1_555
Fe2 O2 2.078065 1_545
Fe2 O13 2.218746 1_555
Fe2 O6 2.218746 1_545
Fe2 O4 2.307483 1_545
Fe2 O7 2.307483 1_555
Fe3 O10 2.078065 1_455
Fe3 O0 2.078065 1_555
Fe3 O1 2.218746 1_455
Fe3 O5 2.218746 1_555
Fe3 O9 2.307483 1_455
Fe3 O11 2.307483 1_555
O0 Sb2 1.941598 1_555
O1 Sb6 1.944919 1_555
O1 Sb1 2.721706 1_655
O2 Sb1 1.941598 1_555
O3 Sb7 2.048356 1_555
O3 Sb5 2.161127 1_555
O3 Sb6 2.703014 1_556
O4 Sb7 2.048356 1_555
O4 Sb5 2.161127 1_555
O4 Sb6 2.703014 1_555
O5 Sb0 1.944919 1_555
O5 Sb3 2.721706 1_455
O6 Sb5 1.944919 1_555
O6 Sb2 2.721706 1_565
O7 Sb2 2.048356 1_555
O7 Sb4 2.161127 1_555
O7 Sb0 2.703014 1_555
O8 Sb2 2.048356 1_555
O8 Sb4 2.161127 1_555
O8 Sb0 2.703014 1_556
O9 Sb3 2.048356 1_555
O9 Sb6 2.161127 1_555
O9 Sb4 2.703014 1_555
O10 Sb7 1.941598 1_555
O11 Sb1 2.048356 1_555
O11 Sb0 2.161127 1_555
O11 Sb5 2.703014 1_555
O12 Sb3 2.048356 1_556
O12 Sb6 2.161127 1_556
O12 Sb4 2.703014 1_555
O13 Sb4 1.944919 1_555
O13 Sb7 2.721706 1_545
O14 Sb3 1.941598 1_555
O15 Sb1 2.048356 1_556
O15 Sb0 2.161127 1_556
O15 Sb5 2.703014 1_555
