# generated using pymatgen
data_KBa2As5
_symmetry_space_group_name_H-M   'P 1'
_cell_length_a   13.02242099
_cell_length_b   13.02242099
_cell_length_c   11.67998589
_cell_angle_alpha   89.85942161
_cell_angle_beta   89.85942161
_cell_angle_gamma   131.55916251
_symmetry_Int_Tables_number   1
_chemical_formula_structural   KBa2As5
_chemical_formula_sum   'K6 Ba12 As30'
_cell_volume   1482.09824484
_cell_formula_units_Z   6
loop_
 _symmetry_equiv_pos_site_id
 _symmetry_equiv_pos_as_xyz
  1  'x, y, z'
loop_
 _atom_site_type_symbol
 _atom_site_label
 _atom_site_symmetry_multiplicity
 _atom_site_fract_x
 _atom_site_fract_y
 _atom_site_fract_z
 _atom_site_occupancy
  K  K0  1  0.81893500  0.81893500  0.85122200  1
  K  K1  1  0.49173900  0.16424300  0.85188300  1
  K  K2  1  0.84248100  0.17481200  0.35204200  1
  K  K3  1  0.16424300  0.49173900  0.85188300  1
  K  K4  1  0.43402600  0.43402600  0.72943600  1
  K  K5  1  0.17481200  0.84248100  0.35204200  1
  Ba  Ba0  1  0.90547500  0.90547500  0.22387800  1
  Ba  Ba1  1  0.93932900  0.60329100  0.04703700  1
  Ba  Ba2  1  0.72940400  0.39740900  0.54900500  1
  Ba  Ba3  1  0.56878000  0.23039900  0.22753400  1
  Ba  Ba4  1  0.76636100  0.09950900  0.73502100  1
  Ba  Ba5  1  0.60329100  0.93932900  0.04703700  1
  Ba  Ba6  1  0.39740900  0.72940400  0.54900500  1
  Ba  Ba7  1  0.23039900  0.56878000  0.22753400  1
  Ba  Ba8  1  0.50329400  0.50329400  0.35603800  1
  Ba  Ba9  1  0.27386500  0.27386500  0.03489200  1
  Ba  Ba10  1  0.06666500  0.06666500  0.54562100  1
  Ba  Ba11  1  0.09950900  0.76636100  0.73502100  1
  As  As0  1  0.93082100  0.09906000  0.98846400  1
  As  As1  1  0.71275500  0.71275500  0.57541400  1
  As  As2  1  0.89665200  0.73339700  0.48442300  1
  As  As3  1  0.74586100  0.51851600  0.81251400  1
  As  As4  1  0.81153000  0.58966300  0.30470600  1
  As  As5  1  0.60702700  0.43794100  0.99776200  1
  As  As6  1  0.85675400  0.41395500  0.80858700  1
  As  As7  1  0.91886300  0.47909800  0.30831100  1
  As  As8  1  0.77254800  0.26788300  0.98741200  1
  As  As9  1  0.95370200  0.28469800  0.07786500  1
  As  As10  1  0.38015200  0.04301300  0.57774300  1
  As  As11  1  0.56358300  0.06436000  0.48660500  1
  As  As12  1  0.41395500  0.85675400  0.80858700  1
  As  As13  1  0.47909800  0.91886300  0.30831100  1
  As  As14  1  0.73339700  0.89665200  0.48442300  1
  As  As15  1  0.26788300  0.77254800  0.98741200  1
  As  As16  1  0.51851600  0.74586100  0.81251400  1
  As  As17  1  0.58966300  0.81153000  0.30470600  1
  As  As18  1  0.43794100  0.60702700  0.99776200  1
  As  As19  1  0.62174800  0.62174800  0.08070100  1
  As  As20  1  0.04301300  0.38015200  0.57774300  1
  As  As21  1  0.22282600  0.39743600  0.48275600  1
  As  As22  1  0.07184900  0.18039000  0.80786400  1
  As  As23  1  0.15162300  0.26080300  0.29932100  1
  As  As24  1  0.39743600  0.22282600  0.48275600  1
  As  As25  1  0.18039000  0.07184900  0.80786400  1
  As  As26  1  0.26080300  0.15162300  0.29932100  1
  As  As27  1  0.09906000  0.93082100  0.98846400  1
  As  As28  1  0.28469800  0.95370200  0.07786500  1
  As  As29  1  0.06436000  0.56358300  0.48660500  1
loop_
_geom_bond_atom_site_label_1
_geom_bond_atom_site_label_2
_geom_bond_distance
_geom_bond_site_symmetry_2
Ba0 Ba10 4.143177 1_665
Ba1 Ba11 4.023611 1_654
Ba4 Ba5 4.023611 1_546
Ba9 K4 3.947676 1_554
As0 As9 2.466058 1_556
As0 As22 2.516635 1_655
As0 K0 3.314794 1_545
As0 Ba5 3.345803 1_546
As0 Ba9 3.458036 1_656
As0 Ba0 3.589168 1_546
As0 Ba4 3.660227 1_555
As1 As14 2.463482 1_555
As1 As2 2.463482 1_555
As1 Ba8 3.412173 1_555
As1 K0 3.421765 1_555
As1 K4 3.470124 1_555
As1 Ba10 3.795378 1_665
As2 As4 2.533037 1_555
As2 K5 3.265646 1_655
As2 Ba10 3.394454 1_665
As2 Ba2 3.433465 1_555
As2 Ba0 3.730785 1_555
As2 Ba11 3.777505 1_655
As3 As5 2.550283 1_555
As3 As6 2.559386 1_555
As3 Ba1 3.380534 1_556
As3 K0 3.389175 1_555
As3 Ba2 3.403608 1_555
As3 K1 3.488943 1_555
As3 Ba11 3.562224 1_655
As3 K4 3.569191 1_555
As4 As7 2.588179 1_555
As4 Ba1 3.382259 1_555
As4 Ba8 3.425116 1_555
As4 Ba2 3.457054 1_555
As4 Ba0 3.549855 1_555
As4 K5 3.589183 1_655
As4 Ba3 3.620205 1_555
As5 K1 3.286851 1_555
As5 Ba9 3.356107 1_556
As5 Ba1 3.368874 1_556
As5 Ba3 3.595400 1_556
As5 K4 3.844918 1_555
As6 As8 2.526884 1_555
As6 Ba1 3.394547 1_556
As6 Ba2 3.397501 1_555
As6 K3 3.456405 1_655
As6 Ba11 3.537131 1_655
As6 Ba4 3.538164 1_555
As6 K1 3.591171 1_555
As7 Ba1 3.376285 1_555
As7 Ba2 3.404589 1_555
As7 K2 3.422004 1_555
As7 Ba7 3.521707 1_655
As7 Ba3 3.550948 1_555
As7 K5 3.585630 1_655
As8 As9 2.461156 1_556
As8 Ba5 3.333900 1_546
As8 K1 3.345192 1_555
As8 Ba1 3.422845 1_556
As8 Ba4 3.647313 1_555
As8 Ba3 3.658376 1_556
As9 K2 3.406701 1_555
As9 K3 3.446011 1_654
As9 Ba7 3.478768 1_655
As9 Ba5 3.737172 1_545
As10 As11 2.453857 1_555
As10 As24 2.459954 1_555
As10 K5 3.423857 1_545
As10 K1 3.443879 1_555
As10 Ba11 3.489378 1_545
As10 Ba2 3.772636 1_555
As11 As13 2.530202 1_545
As11 K2 3.280206 1_555
As11 Ba2 3.406149 1_555
As11 Ba6 3.419565 1_545
As11 Ba3 3.689024 1_555
As11 Ba4 3.747227 1_555
As12 As15 2.526884 1_555
As12 As16 2.559386 1_555
As12 Ba5 3.394547 1_556
As12 Ba6 3.397501 1_555
As12 K1 3.456405 1_565
As12 Ba4 3.537131 1_565
As12 Ba11 3.538164 1_555
As12 K3 3.591171 1_555
As13 As17 2.588179 1_555
As13 Ba5 3.376285 1_555
As13 Ba6 3.404589 1_555
As13 K5 3.422004 1_555
As13 Ba3 3.521707 1_565
As13 Ba7 3.550948 1_555
As13 K2 3.585630 1_565
As14 As17 2.533037 1_555
As14 K2 3.265646 1_565
As14 Ba10 3.394454 1_665
As14 Ba6 3.433465 1_555
As14 Ba0 3.730785 1_555
As14 Ba4 3.777505 1_565
As15 As28 2.461156 1_556
As15 Ba1 3.333900 1_456
As15 K3 3.345192 1_555
As15 Ba5 3.422845 1_556
As15 Ba11 3.647313 1_555
As15 Ba7 3.658376 1_556
As16 As18 2.550283 1_555
As16 Ba5 3.380534 1_556
As16 K0 3.389175 1_555
As16 Ba6 3.403608 1_555
As16 K3 3.488943 1_555
As16 Ba4 3.562224 1_565
As16 K4 3.569191 1_555
As17 Ba5 3.382259 1_555
As17 Ba8 3.425116 1_555
As17 Ba6 3.457054 1_555
As17 Ba0 3.549855 1_555
As17 K2 3.589183 1_565
As17 Ba7 3.620205 1_555
As18 As19 2.471444 1_556
As18 K3 3.286851 1_555
As18 Ba9 3.356107 1_556
As18 Ba5 3.368874 1_556
As18 Ba7 3.595400 1_556
As18 K4 3.844918 1_555
As19 As5 2.471444 1_554
As19 K0 3.399353 1_554
As19 Ba8 3.448976 1_555
As19 Ba0 3.470982 1_555
As19 Ba9 3.758553 1_555
As20 As29 2.453857 1_555
As20 As21 2.459954 1_555
As20 K2 3.423857 1_455
As20 K3 3.443879 1_555
As20 Ba4 3.489378 1_455
As20 Ba6 3.772636 1_555
As21 As23 2.540772 1_555
As21 Ba8 3.273222 1_555
As21 Ba6 3.382452 1_555
As21 Ba10 3.403489 1_555
As21 Ba7 3.680862 1_555
As21 K4 3.794689 1_555
As22 As25 2.578089 1_555
As22 Ba9 3.351900 1_556
As22 Ba10 3.386799 1_555
As22 K3 3.419334 1_555
As22 Ba4 3.481509 1_455
As22 K0 3.559660 1_445
As22 K4 3.645323 1_555
As23 As26 2.593267 1_555
As23 Ba9 3.422874 1_555
As23 K2 3.441395 1_455
As23 Ba10 3.482678 1_555
As23 Ba8 3.495885 1_555
As23 Ba7 3.515801 1_555
As23 Ba0 3.580104 1_445
As24 As26 2.540772 1_555
As24 Ba8 3.273222 1_555
As24 Ba2 3.382452 1_555
As24 Ba10 3.403489 1_555
As24 Ba3 3.680862 1_555
As24 K4 3.794689 1_555
As25 As27 2.516635 1_545
As25 Ba9 3.351900 1_556
As25 Ba10 3.386799 1_555
As25 K1 3.419334 1_555
As25 Ba11 3.481509 1_545
As25 K0 3.559660 1_445
As25 K4 3.645323 1_555
As26 Ba9 3.422874 1_555
As26 K5 3.441395 1_545
As26 Ba10 3.482678 1_555
As26 Ba8 3.495885 1_555
As26 Ba3 3.515801 1_555
As26 Ba0 3.580104 1_445
As27 As28 2.466058 1_556
As27 K0 3.314794 1_455
As27 Ba1 3.345803 1_456
As27 Ba9 3.458036 1_566
As27 Ba0 3.589168 1_456
As27 Ba11 3.660227 1_555
As28 K5 3.406701 1_555
As28 K1 3.446011 1_564
As28 Ba3 3.478768 1_565
As28 Ba1 3.737172 1_455
As29 As7 2.530202 1_455
As29 K5 3.280206 1_555
As29 Ba6 3.406149 1_555
As29 Ba2 3.419565 1_455
As29 Ba7 3.689024 1_555
As29 Ba11 3.747227 1_555
