# generated using pymatgen
data_SnSO4
_symmetry_space_group_name_H-M   'P 1'
_cell_length_a   5.45829200
_cell_length_b   7.25298722
_cell_length_c   9.14395011
_cell_angle_alpha   90.08452566
_cell_angle_beta   91.03127882
_cell_angle_gamma   91.24935143
_symmetry_Int_Tables_number   1
_chemical_formula_structural   SnSO4
_chemical_formula_sum   'Sn4 S4 O16'
_cell_volume   361.85381746
_cell_formula_units_Z   4
loop_
 _symmetry_equiv_pos_site_id
 _symmetry_equiv_pos_as_xyz
  1  'x, y, z'
loop_
 _atom_site_type_symbol
 _atom_site_label
 _atom_site_symmetry_multiplicity
 _atom_site_fract_x
 _atom_site_fract_y
 _atom_site_fract_z
 _atom_site_occupancy
  Sn  Sn0  1  0.69796100  0.28474700  0.71577700  1
  Sn  Sn1  1  0.30203900  0.71525300  0.28422300  1
  Sn  Sn2  1  0.21052400  0.78035400  0.78529800  1
  Sn  Sn3  1  0.78947600  0.21964600  0.21470200  1
  S  S0  1  0.22998400  0.31819900  0.92461600  1
  S  S1  1  0.26870900  0.18266600  0.42555400  1
  S  S2  1  0.73129100  0.81733400  0.57444600  1
  S  S3  1  0.77001600  0.68180100  0.07538400  1
  O  O0  1  0.76932400  0.97893100  0.67517800  1
  O  O1  1  0.50807800  0.70804000  0.61788600  1
  O  O2  1  0.74849400  0.52767200  0.18480900  1
  O  O3  1  0.04670800  0.30077200  0.40404900  1
  O  O4  1  0.95329200  0.69922800  0.59595100  1
  O  O5  1  0.99756300  0.79362600  0.10929800  1
  O  O6  1  0.25150600  0.47232800  0.81519100  1
  O  O7  1  0.29409000  0.12988500  0.58011500  1
  O  O8  1  0.23067600  0.02106900  0.32482200  1
  O  O9  1  0.49192200  0.29196000  0.38211400  1
  O  O10  1  0.00243700  0.20637400  0.89070200  1
  O  O11  1  0.77252400  0.61761500  0.92353800  1
  O  O12  1  0.45035000  0.19922300  0.90148100  1
  O  O13  1  0.54965000  0.80077700  0.09851900  1
  O  O14  1  0.22747600  0.38238500  0.07646200  1
  O  O15  1  0.70591000  0.87011500  0.41988500  1
loop_
_geom_bond_atom_site_label_1
_geom_bond_atom_site_label_2
_geom_bond_distance
_geom_bond_site_symmetry_2
O0 S2 1.498182 1_555
O0 Sn0 2.291259 1_565
O0 Sn2 2.992653 1_655
O1 S2 1.498934 1_555
O1 Sn2 2.319602 1_555
O2 S3 1.505473 1_555
O2 Sn3 2.266581 1_555
O2 Sn1 2.972613 1_555
O3 S1 1.509298 1_555
O3 Sn3 2.277874 1_455
O4 S2 1.509298 1_555
O4 Sn2 2.277874 1_655
O5 S3 1.496017 1_555
O5 Sn1 2.364679 1_655
O6 S0 1.505473 1_555
O6 Sn2 2.266581 1_555
O6 Sn0 2.972613 1_555
O7 S1 1.469699 1_555
O7 Sn0 2.729372 1_555
O8 S1 1.498182 1_555
O8 Sn1 2.291259 1_545
O8 Sn3 2.992653 1_455
O9 S1 1.498934 1_555
O9 Sn3 2.319602 1_555
O10 S0 1.496017 1_555
O10 Sn0 2.364679 1_455
O11 S3 1.464181 1_556
O11 Sn2 2.949032 1_655
O11 Sn0 3.085334 1_555
O12 S0 1.513296 1_555
O12 Sn0 2.268042 1_555
O13 S3 1.513296 1_555
O13 Sn1 2.268042 1_555
O14 S0 1.464181 1_554
O14 Sn3 2.949032 1_455
O14 Sn1 3.085334 1_555
O15 S2 1.469699 1_555
O15 Sn1 2.729372 1_555
