# generated using pymatgen
data_RbLiB4O7
_symmetry_space_group_name_H-M   'P 1'
_cell_length_a   8.81127000
_cell_length_b   11.45887600
_cell_length_c   13.07206200
_cell_angle_alpha   90.00000000
_cell_angle_beta   90.00000000
_cell_angle_gamma   90.00000000
_symmetry_Int_Tables_number   1
_chemical_formula_structural   RbLiB4O7
_chemical_formula_sum   'Rb8 Li8 B32 O56'
_cell_volume   1319.85015632
_cell_formula_units_Z   8
loop_
 _symmetry_equiv_pos_site_id
 _symmetry_equiv_pos_as_xyz
  1  'x, y, z'
loop_
 _atom_site_type_symbol
 _atom_site_label
 _atom_site_symmetry_multiplicity
 _atom_site_fract_x
 _atom_site_fract_y
 _atom_site_fract_z
 _atom_site_occupancy
  Rb  Rb0  1  0.36622800  0.45458100  0.09979000  1
  Rb  Rb1  1  0.86622800  0.04541900  0.90021000  1
  Rb  Rb2  1  0.63377200  0.95458100  0.40021000  1
  Rb  Rb3  1  0.13377200  0.54541900  0.59979000  1
  Rb  Rb4  1  0.69165600  0.37339600  0.79256700  1
  Rb  Rb5  1  0.19165600  0.12660400  0.20743300  1
  Rb  Rb6  1  0.30834400  0.87339600  0.70743300  1
  Rb  Rb7  1  0.80834400  0.62660400  0.29256700  1
  Li  Li0  1  0.75480000  0.67281700  0.80789600  1
  Li  Li1  1  0.25480000  0.82718300  0.19210400  1
  Li  Li2  1  0.24520000  0.17281700  0.69210400  1
  Li  Li3  1  0.74520000  0.32718300  0.30789600  1
  Li  Li4  1  0.08152500  0.64606600  0.88127500  1
  Li  Li5  1  0.58152500  0.85393400  0.11872500  1
  Li  Li6  1  0.91847500  0.14606600  0.61872500  1
  Li  Li7  1  0.41847500  0.35393400  0.38127500  1
  B  B0  1  0.36410300  0.72404900  0.98775800  1
  B  B1  1  0.86410300  0.77595100  0.01224200  1
  B  B2  1  0.63589700  0.22404900  0.51224200  1
  B  B3  1  0.13589700  0.27595100  0.48775800  1
  B  B4  1  0.43016600  0.59747900  0.83634300  1
  B  B5  1  0.93016600  0.90252100  0.16365700  1
  B  B6  1  0.56983400  0.09747900  0.66365700  1
  B  B7  1  0.06983400  0.40252100  0.33634300  1
  B  B8  1  0.23750600  0.42181700  0.84145400  1
  B  B9  1  0.73750600  0.07818300  0.15854600  1
  B  B10  1  0.76249400  0.92181700  0.65854600  1
  B  B11  1  0.26249400  0.57818300  0.34145400  1
  B  B12  1  0.06534000  0.25541900  0.80600900  1
  B  B13  1  0.56534000  0.24458100  0.19399100  1
  B  B14  1  0.93466000  0.75541900  0.69399100  1
  B  B15  1  0.43466000  0.74458100  0.30600900  1
  B  B16  1  0.00874800  0.39110300  0.95308600  1
  B  B17  1  0.50874800  0.10889700  0.04691400  1
  B  B18  1  0.99125200  0.89110300  0.54691400  1
  B  B19  1  0.49125200  0.60889700  0.45308600  1
  B  B20  1  0.99483300  0.37932300  0.14445000  1
  B  B21  1  0.49483300  0.12067700  0.85555000  1
  B  B22  1  0.00516700  0.87932300  0.35555000  1
  B  B23  1  0.50516700  0.62067700  0.64445000  1
  B  B24  1  0.79947400  0.48708100  0.05246700  1
  B  B25  1  0.29947400  0.01291900  0.94753300  1
  B  B26  1  0.20052600  0.98708100  0.44753300  1
  B  B27  1  0.70052600  0.51291900  0.55246700  1
  B  B28  1  0.62849700  0.64360800  0.97919100  1
  B  B29  1  0.12849700  0.85639200  0.02080900  1
  B  B30  1  0.37150300  0.14360800  0.52080900  1
  B  B31  1  0.87150300  0.35639200  0.47919100  1
  O  O0  1  0.32099400  0.66969200  0.89808600  1
  O  O1  1  0.82099400  0.83030800  0.10191400  1
  O  O2  1  0.67900600  0.16969200  0.60191400  1
  O  O3  1  0.17900600  0.33030800  0.39808600  1
  O  O4  1  0.43448500  0.65175500  0.73300700  1
  O  O5  1  0.93448500  0.84824500  0.26699300  1
  O  O6  1  0.56551500  0.15175500  0.76699300  1
  O  O7  1  0.06551500  0.34824500  0.23300700  1
  O  O8  1  0.37065900  0.47631300  0.82039300  1
  O  O9  1  0.87065900  0.02368700  0.17960700  1
  O  O10  1  0.62934100  0.97631300  0.67960700  1
  O  O11  1  0.12934100  0.52368700  0.32039300  1
  O  O12  1  0.20625800  0.31691800  0.79009100  1
  O  O13  1  0.70625800  0.18308200  0.20990900  1
  O  O14  1  0.79374200  0.81691800  0.70990900  1
  O  O15  1  0.29374200  0.68308200  0.29009100  1
  O  O16  1  0.03314000  0.16609800  0.74431500  1
  O  O17  1  0.53314000  0.33390200  0.25568500  1
  O  O18  1  0.96686000  0.66609800  0.75568500  1
  O  O19  1  0.46686000  0.83390200  0.24431500  1
  O  O20  1  0.97388400  0.29178100  0.88597200  1
  O  O21  1  0.47388400  0.20821900  0.11402800  1
  O  O22  1  0.02611600  0.79178100  0.61402800  1
  O  O23  1  0.52611600  0.70821900  0.38597200  1
  O  O24  1  0.13169700  0.46638800  0.90900200  1
  O  O25  1  0.63169700  0.03361200  0.09099800  1
  O  O26  1  0.86830300  0.96638800  0.59099800  1
  O  O27  1  0.36830300  0.53361200  0.40900200  1
  O  O28  1  0.87210600  0.46425100  0.96254000  1
  O  O29  1  0.37210600  0.03574900  0.03746000  1
  O  O30  1  0.12789400  0.96425100  0.53746000  1
  O  O31  1  0.62789400  0.53574900  0.46254000  1
  O  O32  1  0.06210300  0.34883800  0.05394600  1
  O  O33  1  0.56210300  0.15116200  0.94605400  1
  O  O34  1  0.93789700  0.84883800  0.44605400  1
  O  O35  1  0.43789700  0.65116200  0.55394600  1
  O  O36  1  0.85711300  0.44142400  0.14525200  1
  O  O37  1  0.35711300  0.05857600  0.85474800  1
  O  O38  1  0.14288700  0.94142400  0.35474800  1
  O  O39  1  0.64288700  0.55857600  0.64525200  1
  O  O40  1  0.67335900  0.55590100  0.05891300  1
  O  O41  1  0.17335900  0.94409900  0.94108700  1
  O  O42  1  0.32664100  0.05590100  0.44108700  1
  O  O43  1  0.82664100  0.44409900  0.55891300  1
  O  O44  1  0.57973200  0.59186100  0.88256700  1
  O  O45  1  0.07973200  0.90813900  0.11743300  1
  O  O46  1  0.42026800  0.09186100  0.61743300  1
  O  O47  1  0.92026800  0.40813900  0.38256700  1
  O  O48  1  0.76239700  0.71611800  0.95296600  1
  O  O49  1  0.26239700  0.78388200  0.04703400  1
  O  O50  1  0.23760300  0.21611800  0.54703400  1
  O  O51  1  0.73760300  0.28388200  0.45296600  1
  O  O52  1  0.50948400  0.71704600  0.02630600  1
  O  O53  1  0.00948400  0.78295400  0.97369400  1
  O  O54  1  0.49051600  0.21704600  0.47369400  1
  O  O55  1  0.99051600  0.28295400  0.52630600  1
loop_
_geom_bond_atom_site_label_1
_geom_bond_atom_site_label_2
_geom_bond_distance
_geom_bond_site_symmetry_2
Li0 O48 1.961345 1_555
Li0 O18 1.990754 1_555
Li0 O44 2.047649 1_555
Li0 O14 2.117782 1_555
Li0 O39 2.684460 1_555
Li1 O49 1.961345 1_555
Li1 O19 1.990754 1_555
Li1 O45 2.047649 1_555
Li1 O15 2.117782 1_555
Li1 O38 2.684460 1_555
Li2 O50 1.961345 1_555
Li2 O16 1.990754 1_555
Li2 O46 2.047649 1_555
Li2 O12 2.117782 1_555
Li2 O37 2.684460 1_555
Li3 O51 1.961345 1_555
Li3 O17 1.990754 1_555
Li3 O47 2.047649 1_555
Li3 O13 2.117782 1_555
Li3 O36 2.684460 1_555
Li4 O18 1.941322 1_455
Li4 O53 2.079161 1_555
Li4 O24 2.136798 1_555
Li4 O0 2.138643 1_555
Li5 O19 1.941322 1_555
Li5 O52 2.079161 1_555
Li5 O25 2.136798 1_565
Li5 O1 2.138643 1_555
Li6 O16 1.941322 1_655
Li6 O55 2.079161 1_555
Li6 O26 2.136798 1_545
Li6 O2 2.138643 1_555
Li7 O17 1.941322 1_555
Li7 O54 2.079161 1_555
Li7 O27 2.136798 1_555
Li7 O3 2.138643 1_555
B0 O49 1.368788 1_556
B0 O52 1.378875 1_556
B0 O0 1.380687 1_555
B0 Rb0 3.417542 1_556
B1 O48 1.368788 1_554
B1 O53 1.378875 1_654
B1 O1 1.380687 1_555
B1 Rb1 3.417542 1_564
B2 O51 1.368788 1_555
B2 O54 1.378875 1_555
B2 O2 1.380687 1_555
B2 Rb2 3.417542 1_545
B3 O50 1.368788 1_555
B3 O55 1.378875 1_455
B3 O3 1.380687 1_555
B3 Rb3 3.417542 1_555
B4 O44 1.451215 1_555
B4 O4 1.487602 1_555
B4 O8 1.498707 1_555
B4 O0 1.503823 1_555
B5 O45 1.451215 1_655
B5 O5 1.487602 1_555
B5 O9 1.498707 1_565
B5 O1 1.503823 1_555
B6 O46 1.451215 1_555
B6 O6 1.487602 1_555
B6 O10 1.498707 1_545
B6 O2 1.503823 1_555
B7 O47 1.451215 1_455
B7 O7 1.487602 1_555
B7 O11 1.498707 1_555
B7 O3 1.503823 1_555
B8 O8 1.357298 1_555
B8 O24 1.381929 1_555
B8 O12 1.404093 1_555
B8 Rb3 3.580648 1_555
B9 O9 1.357298 1_555
B9 O25 1.381929 1_555
B9 O13 1.404093 1_555
B9 Rb2 3.580648 1_545
B10 O10 1.357298 1_555
B10 O26 1.381929 1_555
B10 O14 1.404093 1_555
B10 Rb1 3.580648 1_565
B11 O11 1.357298 1_555
B11 O27 1.381929 1_555
B11 O15 1.404093 1_555
B11 Rb0 3.580648 1_555
B12 O16 1.333596 1_555
B12 O20 1.384055 1_455
B12 O12 1.442792 1_555
B13 O17 1.333596 1_555
B13 O21 1.384055 1_555
B13 O13 1.442792 1_555
B14 O18 1.333596 1_555
B14 O22 1.384055 1_655
B14 O14 1.442792 1_555
B15 O19 1.333596 1_555
B15 O23 1.384055 1_555
B15 O15 1.442792 1_555
B16 O20 1.469480 1_455
B16 O28 1.472220 1_455
B16 O32 1.481175 1_556
B16 O24 1.499975 1_555
B17 O21 1.469480 1_555
B17 O29 1.472220 1_555
B17 O33 1.481175 1_554
B17 O25 1.499975 1_555
B18 O22 1.469480 1_655
B18 O30 1.472220 1_655
B18 O34 1.481175 1_555
B18 O26 1.499975 1_555
B19 O23 1.469480 1_555
B19 O31 1.472220 1_555
B19 O35 1.481175 1_555
B19 O27 1.499975 1_555
B20 O7 1.361906 1_655
B20 O32 1.368585 1_655
B20 O36 1.406787 1_555
B21 O6 1.361906 1_555
B21 O33 1.368585 1_555
B21 O37 1.406787 1_555
B22 O5 1.361906 1_455
B22 O34 1.368585 1_455
B22 O38 1.406787 1_555
B23 O4 1.361906 1_555
B23 O35 1.368585 1_555
B23 O39 1.406787 1_555
B24 O28 1.363776 1_554
B24 O40 1.365221 1_555
B24 O36 1.415187 1_555
B25 O29 1.363776 1_556
B25 O41 1.365221 1_545
B25 O37 1.415187 1_555
B26 O30 1.363776 1_555
B26 O42 1.365221 1_565
B26 O38 1.415187 1_555
B27 O31 1.363776 1_555
B27 O43 1.365221 1_555
B27 O39 1.415187 1_555
B28 O44 1.459996 1_555
B28 O52 1.478902 1_556
B28 O48 1.483201 1_555
B28 O40 1.500788 1_556
B29 O45 1.459996 1_555
B29 O53 1.478902 1_554
B29 O49 1.483201 1_555
B29 O41 1.500788 1_554
B30 O46 1.459996 1_555
B30 O54 1.478902 1_555
B30 O50 1.483201 1_555
B30 O42 1.500788 1_555
B31 O47 1.459996 1_555
B31 O55 1.478902 1_555
B31 O51 1.483201 1_555
B31 O43 1.500788 1_555
O0 Rb6 3.416460 1_555
O1 Rb7 3.416460 1_555
O2 Rb4 3.416460 1_555
O3 Rb5 3.416460 1_555
O4 Rb6 2.792396 1_555
O4 Rb3 3.396761 1_555
O5 Rb7 2.792396 1_555
O5 Rb2 3.396761 1_555
O6 Rb4 2.792396 1_555
O6 Rb1 3.396761 1_555
O7 Rb5 2.792396 1_555
O7 Rb0 3.396761 1_555
O8 Rb4 3.085917 1_555
O8 Rb3 3.646878 1_555
O8 Rb0 3.660983 1_556
O9 Rb5 3.085917 1_655
O9 Rb2 3.646878 1_545
O9 Rb1 3.660983 1_554
O10 Rb6 3.085917 1_555
O10 Rb1 3.646878 1_565
O10 Rb2 3.660983 1_555
O11 Rb7 3.085917 1_455
O11 Rb0 3.646878 1_555
O11 Rb3 3.660983 1_555
O12 Rb3 3.667703 1_555
O13 Rb2 3.667703 1_545
O14 Rb1 3.667703 1_565
O15 Rb0 3.667703 1_555
O16 Rb1 2.868475 1_455
O17 Rb0 2.868475 1_555
O18 Rb3 2.868475 1_655
O19 Rb2 2.868475 1_555
O20 Rb4 2.923965 1_555
O20 Rb1 2.983951 1_555
O21 Rb5 2.923965 1_555
O21 Rb0 2.983951 1_555
O22 Rb6 2.923965 1_555
O22 Rb3 2.983951 1_555
O23 Rb7 2.923965 1_555
O23 Rb2 2.983951 1_555
O24 Rb0 3.241727 1_556
O25 Rb1 3.241727 1_554
O26 Rb2 3.241727 1_555
O27 Rb3 3.241727 1_555
O28 Rb4 2.923831 1_555
O29 Rb5 2.923831 1_555
O30 Rb6 2.923831 1_555
O31 Rb7 2.923831 1_555
O32 Rb0 3.001379 1_555
O32 Rb5 3.437094 1_555
O33 Rb1 3.001379 1_555
O33 Rb4 3.437094 1_555
O34 Rb2 3.001379 1_555
O34 Rb7 3.437094 1_555
O35 Rb3 3.001379 1_555
O35 Rb6 3.437094 1_555
O36 Rb7 2.897535 1_555
O37 Rb6 2.897535 1_545
O38 Rb5 2.897535 1_565
O39 Rb4 2.897535 1_555
O40 Rb0 2.992837 1_555
O40 Rb7 3.376392 1_555
O41 Rb1 2.992837 1_465
O41 Rb6 3.376392 1_555
O42 Rb2 2.992837 1_545
O42 Rb5 3.376392 1_555
O43 Rb3 2.992837 1_655
O43 Rb4 3.376392 1_555
O44 Rb4 2.936583 1_555
O45 Rb5 2.936583 1_565
O46 Rb6 2.936583 1_545
O47 Rb7 2.936583 1_555
O52 Rb0 3.400210 1_555
O53 Rb1 3.400210 1_465
O54 Rb2 3.400210 1_545
O55 Rb3 3.400210 1_655
