# generated using pymatgen
data_CaLaMgTaO6
_symmetry_space_group_name_H-M   'P 1'
_cell_length_a   5.72764000
_cell_length_b   5.58586300
_cell_length_c   9.68041090
_cell_angle_alpha   54.76712143
_cell_angle_beta   90.00000000
_cell_angle_gamma   90.00000000
_symmetry_Int_Tables_number   1
_chemical_formula_structural   CaLaMgTaO6
_chemical_formula_sum   'Ca2 La2 Mg2 Ta2 O12'
_cell_volume   252.97811369
_cell_formula_units_Z   2
loop_
 _symmetry_equiv_pos_site_id
 _symmetry_equiv_pos_as_xyz
  1  'x, y, z'
loop_
 _atom_site_type_symbol
 _atom_site_label
 _atom_site_symmetry_multiplicity
 _atom_site_fract_x
 _atom_site_fract_y
 _atom_site_fract_z
 _atom_site_occupancy
  Ca  Ca0  1  0.79562400  0.75311200  0.75115600  1
  Ca  Ca1  1  0.20437600  0.75311200  0.25115600  1
  La  La0  1  0.29994300  0.23917100  0.75233200  1
  La  La1  1  0.70005700  0.23917100  0.25233200  1
  Mg  Mg0  1  0.24644800  0.99834600  0.50011200  1
  Mg  Mg1  1  0.75355200  0.99834600  0.00011200  1
  Ta  Ta0  1  0.75703100  0.49871500  0.50073700  1
  Ta  Ta1  1  0.24296900  0.49871500  0.00073700  1
  O  O0  1  0.78231000  0.65963400  0.25514000  1
  O  O1  1  0.04697300  0.26753400  0.54298500  1
  O  O2  1  0.05370300  0.83643700  0.95693600  1
  O  O3  1  0.56089200  0.16395800  0.54373900  1
  O  O4  1  0.53546000  0.74061300  0.95189600  1
  O  O5  1  0.27471400  0.34247900  0.24496600  1
  O  O6  1  0.21769000  0.65963400  0.75514000  1
  O  O7  1  0.95302700  0.26753400  0.04298500  1
  O  O8  1  0.94629700  0.83643700  0.45693600  1
  O  O9  1  0.43910800  0.16395800  0.04373900  1
  O  O10  1  0.46454000  0.74061300  0.45189600  1
  O  O11  1  0.72528600  0.34247900  0.74496600  1
loop_
_geom_bond_atom_site_label_1
_geom_bond_atom_site_label_2
_geom_bond_distance
_geom_bond_site_symmetry_2
Ca0 O11 2.363413 1_555
Ca0 O3 2.406077 1_565
Ca0 O4 2.417646 1_555
Ca0 O6 2.468790 1_655
Ca0 O7 2.703606 1_556
Ca0 O2 2.727571 1_655
Ca0 O8 2.746622 1_555
Ca0 O1 2.776553 1_665
Ca1 O5 2.363413 1_555
Ca1 O9 2.406077 1_565
Ca1 O10 2.417646 1_555
Ca1 O0 2.468790 1_455
Ca1 O1 2.703606 1_555
Ca1 O8 2.727571 1_455
Ca1 O2 2.746622 1_554
Ca1 O7 2.776553 1_465
La0 O6 2.410913 1_555
La0 O2 2.414934 1_545
La0 O1 2.420947 1_555
La0 O11 2.495143 1_555
La0 O4 2.664556 1_545
La0 O9 2.720683 1_556
La0 O3 2.732521 1_555
La0 O10 2.791707 1_555
La1 O0 2.410913 1_555
La1 O8 2.414934 1_545
La1 O7 2.420947 1_555
La1 O5 2.495143 1_555
La1 O10 2.664556 1_545
La1 O3 2.720683 1_555
La1 O9 2.732521 1_555
La1 O4 2.791707 1_554
Mg0 O6 2.076614 1_555
Mg0 O5 2.084169 1_565
Mg0 O8 2.093867 1_455
Mg0 O1 2.111539 1_565
Mg0 O10 2.150854 1_555
Mg0 O3 2.174535 1_565
Mg1 O0 2.076614 1_555
Mg1 O11 2.084169 1_564
Mg1 O2 2.093867 1_654
Mg1 O7 2.111539 1_565
Mg1 O4 2.150854 1_554
Mg1 O9 2.174535 1_565
O0 Ta0 2.003899 1_555
O1 Ta0 1.995832 1_455
O2 Ta1 1.997699 1_556
O3 Ta0 2.008427 1_555
O4 Ta1 2.029475 1_556
O5 Ta1 2.000916 1_555
O6 Ta1 2.003899 1_556
O7 Ta1 1.995832 1_655
O8 Ta0 1.997699 1_555
O9 Ta1 2.008427 1_555
O10 Ta0 2.029475 1_555
O11 Ta0 2.000916 1_555
