# generated using pymatgen
data_B3H60C16(NO)12
_symmetry_space_group_name_H-M   'P 1'
_cell_length_a   10.81447500
_cell_length_b   10.81447500
_cell_length_c   10.81447500
_cell_angle_alpha   90.00000000
_cell_angle_beta   90.00000000
_cell_angle_gamma   90.00000000
_symmetry_Int_Tables_number   1
_chemical_formula_structural   B3H60C16(NO)12
_chemical_formula_sum   'B3 H60 C16 N12 O12'
_cell_volume   1264.78388366
_cell_formula_units_Z   1
loop_
 _symmetry_equiv_pos_site_id
 _symmetry_equiv_pos_as_xyz
  1  'x, y, z'
loop_
 _atom_site_type_symbol
 _atom_site_label
 _atom_site_symmetry_multiplicity
 _atom_site_fract_x
 _atom_site_fract_y
 _atom_site_fract_z
 _atom_site_occupancy
  B  B0  1  0.50000000  0.00000000  0.00000000  1
  B  B1  1  0.00000000  0.50000000  0.00000000  1
  B  B2  1  0.00000000  0.00000000  0.50000000  1
  H  H0  1  0.20996800  0.61103400  0.20996800  1
  H  H1  1  0.20996800  0.20996800  0.61103400  1
  H  H2  1  0.20996800  0.38896600  0.79003200  1
  H  H3  1  0.23134700  0.47921800  0.11444900  1
  H  H4  1  0.23134700  0.88555100  0.52078200  1
  H  H5  1  0.23134700  0.11444900  0.47921800  1
  H  H6  1  0.23134700  0.52078200  0.88555100  1
  H  H7  1  0.47921800  0.23134700  0.11444900  1
  H  H8  1  0.47921800  0.11444900  0.23134700  1
  H  H9  1  0.47921800  0.88555100  0.76865300  1
  H  H10  1  0.47921800  0.76865300  0.88555100  1
  H  H11  1  0.61103400  0.20996800  0.20996800  1
  H  H12  1  0.61103400  0.79003200  0.79003200  1
  H  H13  1  0.72436500  0.84078500  0.00794500  1
  H  H14  1  0.72436500  0.99205500  0.15921500  1
  H  H15  1  0.72436500  0.00794500  0.84078500  1
  H  H16  1  0.72436500  0.15921500  0.99205500  1
  H  H17  1  0.79003200  0.61103400  0.79003200  1
  H  H18  1  0.79003200  0.20996800  0.38896600  1
  H  H19  1  0.79003200  0.38896600  0.20996800  1
  H  H20  1  0.84078500  0.72436500  0.00794500  1
  H  H21  1  0.84078500  0.00794500  0.72436500  1
  H  H22  1  0.84078500  0.99205500  0.27563500  1
  H  H23  1  0.84078500  0.27563500  0.99205500  1
  H  H24  1  0.88555100  0.47921800  0.76865300  1
  H  H25  1  0.88555100  0.76865300  0.47921800  1
  H  H26  1  0.88555100  0.23134700  0.52078200  1
  H  H27  1  0.88555100  0.52078200  0.23134700  1
  H  H28  1  0.99205500  0.72436500  0.15921500  1
  H  H29  1  0.99205500  0.15921500  0.72436500  1
  H  H30  1  0.99205500  0.84078500  0.27563500  1
  H  H31  1  0.99205500  0.27563500  0.84078500  1
  H  H32  1  0.00794500  0.72436500  0.84078500  1
  H  H33  1  0.00794500  0.84078500  0.72436500  1
  H  H34  1  0.00794500  0.15921500  0.27563500  1
  H  H35  1  0.00794500  0.27563500  0.15921500  1
  H  H36  1  0.11444900  0.23134700  0.47921800  1
  H  H37  1  0.11444900  0.47921800  0.23134700  1
  H  H38  1  0.11444900  0.52078200  0.76865300  1
  H  H39  1  0.11444900  0.76865300  0.52078200  1
  H  H40  1  0.15921500  0.72436500  0.99205500  1
  H  H41  1  0.15921500  0.99205500  0.72436500  1
  H  H42  1  0.15921500  0.00794500  0.27563500  1
  H  H43  1  0.15921500  0.27563500  0.00794500  1
  H  H44  1  0.20996800  0.79003200  0.38896600  1
  H  H45  1  0.27563500  0.84078500  0.99205500  1
  H  H46  1  0.27563500  0.99205500  0.84078500  1
  H  H47  1  0.27563500  0.00794500  0.15921500  1
  H  H48  1  0.27563500  0.15921500  0.00794500  1
  H  H49  1  0.38896600  0.20996800  0.79003200  1
  H  H50  1  0.38896600  0.79003200  0.20996800  1
  H  H51  1  0.52078200  0.23134700  0.88555100  1
  H  H52  1  0.52078200  0.88555100  0.23134700  1
  H  H53  1  0.52078200  0.11444900  0.76865300  1
  H  H54  1  0.52078200  0.76865300  0.11444900  1
  H  H55  1  0.76865300  0.47921800  0.88555100  1
  H  H56  1  0.76865300  0.88555100  0.47921800  1
  H  H57  1  0.76865300  0.11444900  0.52078200  1
  H  H58  1  0.76865300  0.52078200  0.11444900  1
  H  H59  1  0.79003200  0.79003200  0.61103400  1
  C  C0  1  0.16118000  0.53620300  0.16118000  1
  C  C1  1  0.16118000  0.16118000  0.53620300  1
  C  C2  1  0.16118000  0.46379700  0.83882000  1
  C  C3  1  0.53620300  0.16118000  0.16118000  1
  C  C4  1  0.53620300  0.83882000  0.83882000  1
  C  C5  1  0.83882000  0.16118000  0.46379700  1
  C  C6  1  0.83882000  0.46379700  0.16118000  1
  C  C7  1  0.83882000  0.53620300  0.83882000  1
  C  C8  1  0.85209200  0.85209200  0.14790800  1
  C  C9  1  0.85209200  0.14790800  0.85209200  1
  C  C10  1  0.14790800  0.85209200  0.85209200  1
  C  C11  1  0.14790800  0.14790800  0.14790800  1
  C  C12  1  0.16118000  0.83882000  0.46379700  1
  C  C13  1  0.46379700  0.16118000  0.83882000  1
  C  C14  1  0.46379700  0.83882000  0.16118000  1
  C  C15  1  0.83882000  0.83882000  0.53620300  1
  N  N0  1  0.80114000  0.80114000  0.04745800  1
  N  N1  1  0.80114000  0.95254200  0.19886000  1
  N  N2  1  0.80114000  0.04745800  0.80114000  1
  N  N3  1  0.80114000  0.19886000  0.95254200  1
  N  N4  1  0.95254200  0.80114000  0.19886000  1
  N  N5  1  0.95254200  0.19886000  0.80114000  1
  N  N6  1  0.04745800  0.80114000  0.80114000  1
  N  N7  1  0.04745800  0.19886000  0.19886000  1
  N  N8  1  0.19886000  0.80114000  0.95254200  1
  N  N9  1  0.19886000  0.95254200  0.80114000  1
  N  N10  1  0.19886000  0.04745800  0.19886000  1
  N  N11  1  0.19886000  0.19886000  0.04745800  1
  O  O0  1  0.07514800  0.58787200  0.07514800  1
  O  O1  1  0.07514800  0.07514800  0.58787200  1
  O  O2  1  0.07514800  0.41212800  0.92485200  1
  O  O3  1  0.58787200  0.07514800  0.07514800  1
  O  O4  1  0.58787200  0.92485200  0.92485200  1
  O  O5  1  0.92485200  0.07514800  0.41212800  1
  O  O6  1  0.92485200  0.41212800  0.07514800  1
  O  O7  1  0.92485200  0.58787200  0.92485200  1
  O  O8  1  0.07514800  0.92485200  0.41212800  1
  O  O9  1  0.41212800  0.07514800  0.92485200  1
  O  O10  1  0.41212800  0.92485200  0.07514800  1
  O  O11  1  0.92485200  0.92485200  0.58787200  1
loop_
_geom_bond_atom_site_label_1
_geom_bond_atom_site_label_2
_geom_bond_distance
_geom_bond_site_symmetry_2
B0 O3 1.491297 1_555
B0 O10 1.491297 1_545
B0 O9 1.491297 1_554
B0 O4 1.491297 1_544
B1 O0 1.491297 1_555
B1 O6 1.491297 1_455
B1 O2 1.491297 1_554
B1 O7 1.491297 1_454
B2 O1 1.491297 1_555
B2 O8 1.491297 1_545
B2 O5 1.491297 1_455
B2 O11 1.491297 1_445
H13 N0 1.027512 1_555
H13 O4 1.952666 1_554
H14 N1 1.027512 1_555
H14 O3 1.952666 1_565
H15 N2 1.027512 1_555
H15 O4 1.952666 1_545
H16 N3 1.027512 1_555
H16 O3 1.952666 1_556
H20 N0 1.027512 1_555
H20 O7 1.952666 1_554
H21 N2 1.027512 1_555
H21 O11 1.952666 1_545
H22 N1 1.027512 1_555
H22 O5 1.952666 1_565
H23 N3 1.027512 1_555
H23 O6 1.952666 1_556
H28 N4 1.027512 1_555
H28 O0 1.952666 1_655
H29 N5 1.027512 1_555
H29 O1 1.952666 1_655
H30 N4 1.027512 1_555
H30 O8 1.952666 1_655
H31 N5 1.027512 1_555
H31 O2 1.952666 1_655
H32 N6 1.027512 1_555
H32 O7 1.952666 1_455
H33 N6 1.027512 1_555
H33 O11 1.952666 1_455
H34 N7 1.027512 1_555
H34 O5 1.952666 1_455
H35 N7 1.027512 1_555
H35 O6 1.952666 1_455
H40 N8 1.027512 1_555
H40 O0 1.952666 1_556
H41 N9 1.027512 1_555
H41 O1 1.952666 1_565
H42 N10 1.027512 1_555
H42 O8 1.952666 1_545
H43 N11 1.027512 1_555
H43 O2 1.952666 1_554
H45 N8 1.027512 1_555
H45 O10 1.952666 1_556
H46 N9 1.027512 1_555
H46 O9 1.952666 1_565
H47 N10 1.027512 1_555
H47 O10 1.952666 1_545
H48 N11 1.027512 1_555
H48 O9 1.952666 1_554
C0 H3 1.100448 1_555
C0 H37 1.100448 1_555
C0 H0 1.100753 1_555
C0 O0 1.429504 1_555
C1 H5 1.100448 1_555
C1 H36 1.100448 1_555
C1 H1 1.100753 1_555
C1 O1 1.429504 1_555
C2 H6 1.100448 1_555
C2 H38 1.100448 1_555
C2 H2 1.100753 1_555
C2 O2 1.429504 1_555
C3 H8 1.100448 1_555
C3 H7 1.100448 1_555
C3 H11 1.100753 1_555
C3 O3 1.429504 1_555
C4 H9 1.100448 1_555
C4 H10 1.100448 1_555
C4 H12 1.100753 1_555
C4 O4 1.429504 1_555
C5 H26 1.100448 1_555
C5 H57 1.100448 1_555
C5 H18 1.100753 1_555
C5 O5 1.429504 1_555
C6 H27 1.100448 1_555
C6 H58 1.100448 1_555
C6 H19 1.100753 1_555
C6 O6 1.429504 1_555
C7 H55 1.100448 1_555
C7 H24 1.100448 1_555
C7 H17 1.100753 1_555
C7 O7 1.429504 1_555
C8 N0 1.336908 1_555
C8 N4 1.336908 1_555
C8 N1 1.336908 1_555
C9 N2 1.336908 1_555
C9 N3 1.336908 1_555
C9 N5 1.336908 1_555
C10 N6 1.336908 1_555
C10 N9 1.336908 1_555
C10 N8 1.336908 1_555
C11 N7 1.336908 1_555
C11 N11 1.336908 1_555
C11 N10 1.336908 1_555
C12 H4 1.100448 1_555
C12 H39 1.100448 1_555
C12 H44 1.100753 1_555
C12 O8 1.429504 1_555
C13 H51 1.100448 1_555
C13 H53 1.100448 1_555
C13 H49 1.100753 1_555
C13 O9 1.429504 1_555
C14 H52 1.100448 1_555
C14 H54 1.100448 1_555
C14 H50 1.100753 1_555
C14 O10 1.429504 1_555
C15 H25 1.100448 1_555
C15 H56 1.100448 1_555
C15 H59 1.100753 1_555
C15 O11 1.429504 1_555
