# generated using pymatgen
data_RbCr4BiO14
_symmetry_space_group_name_H-M   'P 1'
_cell_length_a   17.23711700
_cell_length_b   8.41931000
_cell_length_c   8.92000759
_cell_angle_alpha   88.46484957
_cell_angle_beta   90.00000000
_cell_angle_gamma   90.00000000
_symmetry_Int_Tables_number   1
_chemical_formula_structural   RbCr4BiO14
_chemical_formula_sum   'Rb4 Cr16 Bi4 O56'
_cell_volume   1294.04818517
_cell_formula_units_Z   4
loop_
 _symmetry_equiv_pos_site_id
 _symmetry_equiv_pos_as_xyz
  1  'x, y, z'
loop_
 _atom_site_type_symbol
 _atom_site_label
 _atom_site_symmetry_multiplicity
 _atom_site_fract_x
 _atom_site_fract_y
 _atom_site_fract_z
 _atom_site_occupancy
  Rb  Rb0  1  0.62318900  0.24559300  0.50158500  1
  Rb  Rb1  1  0.12318900  0.25440700  0.49841500  1
  Rb  Rb2  1  0.87681100  0.74559300  0.50158500  1
  Rb  Rb3  1  0.37681100  0.75440700  0.49841500  1
  Cr  Cr0  1  0.81574900  0.08316900  0.78800500  1
  Cr  Cr1  1  0.68425100  0.58316900  0.78800500  1
  Cr  Cr2  1  0.94131300  0.08980800  0.20496900  1
  Cr  Cr3  1  0.44716500  0.13124300  0.26965800  1
  Cr  Cr4  1  0.55283500  0.86875700  0.73034200  1
  Cr  Cr5  1  0.44131300  0.41019200  0.79503100  1
  Cr  Cr6  1  0.79545100  0.33513400  0.23621700  1
  Cr  Cr7  1  0.70454900  0.83513400  0.23621700  1
  Cr  Cr8  1  0.29545100  0.16486600  0.76378300  1
  Cr  Cr9  1  0.94716500  0.36875700  0.73034200  1
  Cr  Cr10  1  0.55868700  0.58980800  0.20496900  1
  Cr  Cr11  1  0.31574900  0.41683100  0.21199500  1
  Cr  Cr12  1  0.05283500  0.63124300  0.26965800  1
  Cr  Cr13  1  0.20454900  0.66486600  0.76378300  1
  Cr  Cr14  1  0.18425100  0.91683100  0.21199500  1
  Cr  Cr15  1  0.05868700  0.91019200  0.79503100  1
  Bi  Bi0  1  0.87618400  0.70873800  0.99587300  1
  Bi  Bi1  1  0.62381600  0.20873800  0.99587300  1
  Bi  Bi2  1  0.12381600  0.29126200  0.00412700  1
  Bi  Bi3  1  0.37618400  0.79126200  0.00412700  1
  O  O0  1  0.83956400  0.88977600  0.79886100  1
  O  O1  1  0.79291400  0.44383400  0.38186900  1
  O  O2  1  0.00344800  0.76780100  0.86698000  1
  O  O3  1  0.39975600  0.29983600  0.19061400  1
  O  O4  1  0.16570200  0.56619600  0.90541300  1
  O  O5  1  0.14602800  0.83313200  0.71975000  1
  O  O6  1  0.95017500  0.35947900  0.55038100  1
  O  O7  1  0.66570200  0.93380400  0.09458700  1
  O  O8  1  0.24466600  0.86924500  0.07764300  1
  O  O9  1  0.10171700  0.47038600  0.22300700  1
  O  O10  1  0.66043600  0.38977600  0.79886100  1
  O  O11  1  0.91827800  0.96171300  0.07380100  1
  O  O12  1  0.60171700  0.02961400  0.77699300  1
  O  O13  1  0.54982500  0.85947900  0.55038100  1
  O  O14  1  0.49655200  0.26780100  0.86698000  1
  O  O15  1  0.45017500  0.14052100  0.44961900  1
  O  O16  1  0.64602800  0.66686800  0.28025000  1
  O  O17  1  0.85397200  0.16686800  0.28025000  1
  O  O18  1  0.20475100  0.22518400  0.80175900  1
  O  O19  1  0.53681500  0.13142500  0.20188600  1
  O  O20  1  0.25533400  0.36924500  0.07764300  1
  O  O21  1  0.98513600  0.99941400  0.34183600  1
  O  O22  1  0.51486400  0.49941400  0.34183600  1
  O  O23  1  0.50344800  0.73219900  0.13302000  1
  O  O24  1  0.72226200  0.62264400  0.62737300  1
  O  O25  1  0.99655200  0.23219900  0.13302000  1
  O  O26  1  0.35397200  0.33313200  0.71975000  1
  O  O27  1  0.70475100  0.27481600  0.19824100  1
  O  O28  1  0.04982500  0.64052100  0.44961900  1
  O  O29  1  0.39828300  0.97038600  0.22300700  1
  O  O30  1  0.58172200  0.46171300  0.07380100  1
  O  O31  1  0.41827800  0.53828700  0.92619900  1
  O  O32  1  0.10024400  0.79983600  0.19061400  1
  O  O33  1  0.89828300  0.52961400  0.77699300  1
  O  O34  1  0.08172200  0.03828700  0.92619900  1
  O  O35  1  0.83429800  0.43380400  0.09458700  1
  O  O36  1  0.29524900  0.72518400  0.80175900  1
  O  O37  1  0.75533400  0.13075500  0.92235700  1
  O  O38  1  0.60024400  0.70016400  0.80938600  1
  O  O39  1  0.96318500  0.63142500  0.20188600  1
  O  O40  1  0.79524900  0.77481600  0.19824100  1
  O  O41  1  0.33956400  0.61022400  0.20113900  1
  O  O42  1  0.46318500  0.86857500  0.79811400  1
  O  O43  1  0.48513600  0.50058600  0.65816400  1
  O  O44  1  0.77773800  0.12264400  0.62737300  1
  O  O45  1  0.27773800  0.37735600  0.37262700  1
  O  O46  1  0.70708600  0.94383400  0.38186900  1
  O  O47  1  0.03681500  0.36857500  0.79811400  1
  O  O48  1  0.33429800  0.06619600  0.90541300  1
  O  O49  1  0.01486400  0.00058600  0.65816400  1
  O  O50  1  0.89975600  0.20016400  0.80938600  1
  O  O51  1  0.20708600  0.55616600  0.61813100  1
  O  O52  1  0.22226200  0.87735600  0.37262700  1
  O  O53  1  0.74466600  0.63075500  0.92235700  1
  O  O54  1  0.29291400  0.05616600  0.61813100  1
  O  O55  1  0.16043600  0.11022400  0.20113900  1
loop_
_geom_bond_atom_site_label_1
_geom_bond_atom_site_label_2
_geom_bond_distance
_geom_bond_site_symmetry_2
Cr0 O44 1.602266 1_555
Cr0 O37 1.645274 1_555
Cr0 O0 1.679462 1_545
Cr0 O50 1.764515 1_555
Cr1 O24 1.602266 1_555
Cr1 O53 1.645274 1_555
Cr1 O10 1.679462 1_555
Cr1 O38 1.764515 1_555
Cr2 O21 1.609506 1_545
Cr2 O25 1.647567 1_555
Cr2 O11 1.660515 1_545
Cr2 O17 1.778130 1_555
Cr3 O15 1.610078 1_555
Cr3 O29 1.657543 1_545
Cr3 O19 1.659331 1_555
Cr3 O3 1.768081 1_555
Cr4 O13 1.610078 1_555
Cr4 O12 1.657543 1_565
Cr4 O42 1.659331 1_555
Cr4 O38 1.768081 1_555
Cr5 O43 1.609506 1_555
Cr5 O14 1.647567 1_555
Cr5 O31 1.660515 1_555
Cr5 O26 1.778130 1_555
Cr6 O1 1.609701 1_555
Cr6 O35 1.636549 1_555
Cr6 O27 1.681102 1_555
Cr6 O17 1.774540 1_555
Cr7 O46 1.609701 1_555
Cr7 O7 1.636549 1_555
Cr7 O40 1.681102 1_555
Cr7 O16 1.774540 1_555
Cr8 O54 1.609701 1_555
Cr8 O48 1.636549 1_555
Cr8 O18 1.681102 1_555
Cr8 O26 1.774540 1_555
Cr9 O6 1.610078 1_555
Cr9 O33 1.657543 1_555
Cr9 O47 1.659331 1_655
Cr9 O50 1.768081 1_555
Cr10 O22 1.609506 1_555
Cr10 O23 1.647567 1_555
Cr10 O30 1.660515 1_555
Cr10 O16 1.778130 1_555
Cr11 O45 1.602266 1_555
Cr11 O20 1.645274 1_555
Cr11 O41 1.679462 1_555
Cr11 O3 1.764515 1_555
Cr12 O28 1.610078 1_555
Cr12 O9 1.657543 1_555
Cr12 O39 1.659331 1_455
Cr12 O32 1.768081 1_555
Cr13 O51 1.609701 1_555
Cr13 O4 1.636549 1_555
Cr13 O36 1.681102 1_555
Cr13 O5 1.774540 1_555
Cr14 O52 1.602266 1_555
Cr14 O8 1.645274 1_555
Cr14 O55 1.679462 1_565
Cr14 O32 1.764515 1_555
Cr15 O49 1.609506 1_565
Cr15 O2 1.647567 1_555
Cr15 O34 1.660515 1_565
Cr15 O5 1.778130 1_555
Bi0 O40 2.359672 1_556
Bi0 O11 2.371782 1_556
Bi0 O0 2.380426 1_555
Bi0 O39 2.446520 1_556
Bi0 O53 2.454265 1_555
Bi0 O2 2.520055 1_655
Bi0 O33 2.527675 1_555
Bi0 O35 2.558415 1_556
Bi1 O27 2.359672 1_556
Bi1 O30 2.371782 1_556
Bi1 O10 2.380426 1_555
Bi1 O19 2.446520 1_556
Bi1 O37 2.454265 1_555
Bi1 O14 2.520055 1_555
Bi1 O12 2.527675 1_555
Bi1 O7 2.558415 1_546
Bi2 O18 2.359672 1_554
Bi2 O34 2.371782 1_554
Bi2 O55 2.380426 1_555
Bi2 O47 2.446520 1_554
Bi2 O20 2.454265 1_555
Bi2 O25 2.520055 1_455
Bi2 O9 2.527675 1_555
Bi2 O4 2.558415 1_554
Bi3 O36 2.359672 1_554
Bi3 O31 2.371782 1_554
Bi3 O41 2.380426 1_555
Bi3 O42 2.446520 1_554
Bi3 O8 2.454265 1_555
Bi3 O23 2.520055 1_555
Bi3 O29 2.527675 1_555
Bi3 O48 2.558415 1_564
O0 Rb2 3.014932 1_555
O1 Rb2 3.135553 1_555
O1 Rb0 3.519877 1_555
O6 Rb1 3.148540 1_655
O6 Rb2 3.504369 1_555
O9 Rb1 3.039618 1_555
O10 Rb0 3.014932 1_555
O12 Rb0 3.039618 1_555
O13 Rb3 3.148540 1_555
O13 Rb0 3.504369 1_565
O15 Rb0 3.148540 1_555
O15 Rb3 3.504369 1_545
O18 Rb1 3.053346 1_555
O19 Rb0 3.228759 1_555
O21 Rb2 3.149697 1_555
O21 Rb1 3.518961 1_665
O22 Rb0 3.149697 1_555
O22 Rb3 3.518961 1_555
O24 Rb2 3.060234 1_555
O24 Rb0 3.800482 1_555
O27 Rb0 3.053346 1_555
O28 Rb2 3.148540 1_455
O28 Rb1 3.504369 1_555
O29 Rb3 3.039618 1_555
O33 Rb2 3.039618 1_555
O36 Rb3 3.053346 1_555
O39 Rb2 3.228759 1_555
O40 Rb2 3.053346 1_555
O41 Rb3 3.014932 1_555
O42 Rb3 3.228759 1_555
O43 Rb3 3.149697 1_555
O43 Rb0 3.518961 1_555
O44 Rb0 3.060234 1_555
O44 Rb2 3.800482 1_545
O45 Rb1 3.060234 1_555
O45 Rb3 3.800482 1_555
O46 Rb0 3.135553 1_565
O46 Rb2 3.519877 1_555
O47 Rb1 3.228759 1_555
O49 Rb1 3.149697 1_555
O49 Rb2 3.518961 1_445
O51 Rb1 3.135553 1_555
O51 Rb3 3.519877 1_555
O52 Rb3 3.060234 1_555
O52 Rb1 3.800482 1_565
O54 Rb3 3.135553 1_545
O54 Rb1 3.519877 1_555
O55 Rb1 3.014932 1_555
