# generated using pymatgen
data_H5NO2
_symmetry_space_group_name_H-M   'P 1'
_cell_length_a   7.91388500
_cell_length_b   5.80321500
_cell_length_c   6.91951062
_cell_angle_alpha   68.05132659
_cell_angle_beta   90.00000000
_cell_angle_gamma   90.00000000
_symmetry_Int_Tables_number   1
_chemical_formula_structural   H5NO2
_chemical_formula_sum   'H20 N4 O8'
_cell_volume   294.75190450
_cell_formula_units_Z   4
loop_
 _symmetry_equiv_pos_site_id
 _symmetry_equiv_pos_as_xyz
  1  'x, y, z'
loop_
 _atom_site_type_symbol
 _atom_site_label
 _atom_site_symmetry_multiplicity
 _atom_site_fract_x
 _atom_site_fract_y
 _atom_site_fract_z
 _atom_site_occupancy
  H  H0  1  0.98468800  0.90171600  0.51671200  1
  H  H1  1  0.17329600  0.91038200  0.44539800  1
  H  H2  1  0.47518100  0.61196000  0.46360200  1
  H  H3  1  0.65006900  0.59825300  0.57770400  1
  H  H4  1  0.52481900  0.11196000  0.46360200  1
  H  H5  1  0.34993100  0.09825300  0.57770400  1
  H  H6  1  0.01531200  0.40171600  0.51671200  1
  H  H7  1  0.82670400  0.41038200  0.44539800  1
  H  H8  1  0.08586900  0.26885600  0.24954200  1
  H  H9  1  0.92792000  0.61876300  0.91585800  1
  H  H10  1  0.19509600  0.51116500  0.12906300  1
  H  H11  1  0.43022500  0.89394900  0.09205600  1
  H  H12  1  0.57654500  0.22360600  0.77628000  1
  H  H13  1  0.68784000  0.97962400  0.85645800  1
  H  H14  1  0.31216000  0.47962400  0.85645800  1
  H  H15  1  0.42345500  0.72360600  0.77628000  1
  H  H16  1  0.56977500  0.39394900  0.09205600  1
  H  H17  1  0.91413100  0.76885600  0.24954200  1
  H  H18  1  0.80490400  0.01116500  0.12906300  1
  H  H19  1  0.07208000  0.11876300  0.91585800  1
  N  N0  1  0.64919200  0.28703000  0.21569800  1
  N  N1  1  0.16081600  0.23473000  0.81067200  1
  N  N2  1  0.83918400  0.73473000  0.81067200  1
  N  N3  1  0.35080800  0.78703000  0.21569800  1
  O  O0  1  0.08814900  0.00114900  0.49190500  1
  O  O1  1  0.56916800  0.49993500  0.53367200  1
  O  O2  1  0.43083200  0.99993500  0.53367200  1
  O  O3  1  0.91185100  0.50114900  0.49190500  1
  O  O4  1  0.08898900  0.42537500  0.12577600  1
  O  O5  1  0.60645500  0.07820700  0.90177300  1
  O  O6  1  0.39354500  0.57820700  0.90177300  1
  O  O7  1  0.91101100  0.92537500  0.12577600  1
loop_
_geom_bond_atom_site_label_1
_geom_bond_atom_site_label_2
_geom_bond_distance
_geom_bond_site_symmetry_2
H0 O0 0.979175 1_665
H1 O0 0.980712 1_565
H2 O1 0.987587 1_555
H3 O1 0.978893 1_555
H4 O2 0.987587 1_545
H5 O2 0.978893 1_545
H6 O3 0.979175 1_455
H7 O3 0.980712 1_555
H8 O4 0.988716 1_555
H9 N2 1.053391 1_555
H10 O4 0.980802 1_555
H11 N3 1.055991 1_555
H12 O5 0.987066 1_555
H13 O5 0.987190 1_565
H14 O6 0.987190 1_555
H15 O6 0.987066 1_555
H16 N0 1.055991 1_555
H17 O7 0.988716 1_555
H18 O7 0.980802 1_545
H19 N1 1.053391 1_555
