# generated using pymatgen
data_Na2AlH4ClO4
_symmetry_space_group_name_H-M   'P 1'
_cell_length_a   7.59412400
_cell_length_b   7.59412400
_cell_length_c   5.10194600
_cell_angle_alpha   90.00000000
_cell_angle_beta   90.00000000
_cell_angle_gamma   90.00000000
_symmetry_Int_Tables_number   1
_chemical_formula_structural   Na2AlH4ClO4
_chemical_formula_sum   'Na4 Al2 H8 Cl2 O8'
_cell_volume   294.23289579
_cell_formula_units_Z   2
loop_
 _symmetry_equiv_pos_site_id
 _symmetry_equiv_pos_as_xyz
  1  'x, y, z'
loop_
 _atom_site_type_symbol
 _atom_site_label
 _atom_site_symmetry_multiplicity
 _atom_site_fract_x
 _atom_site_fract_y
 _atom_site_fract_z
 _atom_site_occupancy
  Na  Na0  1  0.25000000  0.25000000  0.50000000  1
  Na  Na1  1  0.75000000  0.75000000  0.50000000  1
  Na  Na2  1  0.25000000  0.75000000  0.50000000  1
  Na  Na3  1  0.75000000  0.25000000  0.50000000  1
  Al  Al0  1  0.50000000  0.50000000  0.00000000  1
  Al  Al1  1  0.00000000  0.00000000  0.00000000  1
  H  H0  1  0.21007900  0.50000000  0.10899300  1
  H  H1  1  0.78992100  0.50000000  0.10899300  1
  H  H2  1  0.71007900  0.00000000  0.89100700  1
  H  H3  1  0.28992100  0.00000000  0.89100700  1
  H  H4  1  0.50000000  0.78992100  0.89100700  1
  H  H5  1  0.50000000  0.21007900  0.89100700  1
  H  H6  1  0.00000000  0.28992100  0.10899300  1
  H  H7  1  0.00000000  0.71007900  0.10899300  1
  Cl  Cl0  1  0.00000000  0.50000000  0.77912100  1
  Cl  Cl1  1  0.50000000  0.00000000  0.22087900  1
  O  O0  1  0.31609900  0.50000000  0.21788700  1
  O  O1  1  0.68390100  0.50000000  0.21788700  1
  O  O2  1  0.81609900  0.00000000  0.78211300  1
  O  O3  1  0.18390100  0.00000000  0.78211300  1
  O  O4  1  0.50000000  0.68390100  0.78211300  1
  O  O5  1  0.50000000  0.31609900  0.78211300  1
  O  O6  1  0.00000000  0.18390100  0.21788700  1
  O  O7  1  0.00000000  0.81609900  0.21788700  1
loop_
_geom_bond_atom_site_label_1
_geom_bond_atom_site_label_2
_geom_bond_distance
_geom_bond_site_symmetry_2
Na0 O5 2.434758 1_555
Na0 O0 2.434758 1_555
Na0 O3 2.434758 1_555
Na0 O6 2.434758 1_555
Na1 O2 2.434758 1_565
Na1 O7 2.434758 1_655
Na1 O4 2.434758 1_555
Na1 O1 2.434758 1_555
Na2 O7 2.434758 1_555
Na2 O0 2.434758 1_555
Na2 O4 2.434758 1_555
Na2 O3 2.434758 1_565
Na3 O2 2.434758 1_555
Na3 O5 2.434758 1_555
Na3 O1 2.434758 1_555
Na3 O6 2.434758 1_655
Al0 O4 1.784982 1_554
Al0 O1 1.784982 1_555
Al0 O0 1.784982 1_555
Al0 O5 1.784982 1_554
Al1 O6 1.784982 1_555
Al1 O3 1.784982 1_554
Al1 O7 1.784982 1_545
Al1 O2 1.784982 1_454
H0 O0 0.978209 1_555
H1 O1 0.978209 1_555
H2 O2 0.978209 1_555
H3 O3 0.978209 1_555
H4 O4 0.978209 1_555
H5 O5 0.978209 1_555
H6 O6 0.978209 1_555
H7 O7 0.978209 1_555
Cl0 H0 2.318975 1_556
Cl0 H1 2.318975 1_456
Cl0 H7 2.318975 1_556
Cl0 H6 2.318975 1_556
Cl0 Na2 3.039208 1_555
Cl0 Na1 3.039208 1_455
Cl0 Na0 3.039208 1_555
Cl0 Na3 3.039208 1_455
Cl1 H5 2.318975 1_554
Cl1 H4 2.318975 1_544
Cl1 H3 2.318975 1_554
Cl1 H2 2.318975 1_554
Cl1 Na2 3.039208 1_545
Cl1 Na3 3.039208 1_555
Cl1 Na1 3.039208 1_545
Cl1 Na0 3.039208 1_555
