# generated using pymatgen
data_VAg(PS3)2
_symmetry_space_group_name_H-M   'P 1'
_cell_length_a   10.82041900
_cell_length_b   5.89305600
_cell_length_c   7.48364255
_cell_angle_alpha   75.37397698
_cell_angle_beta   90.00000000
_cell_angle_gamma   90.00000000
_symmetry_Int_Tables_number   1
_chemical_formula_structural   VAg(PS3)2
_chemical_formula_sum   'V2 Ag2 P4 S12'
_cell_volume   461.73320856
_cell_formula_units_Z   2
loop_
 _symmetry_equiv_pos_site_id
 _symmetry_equiv_pos_as_xyz
  1  'x, y, z'
loop_
 _atom_site_type_symbol
 _atom_site_label
 _atom_site_symmetry_multiplicity
 _atom_site_fract_x
 _atom_site_fract_y
 _atom_site_fract_z
 _atom_site_occupancy
  V  V0  1  0.93175300  0.75000000  0.00000000  1
  V  V1  1  0.06824700  0.25000000  0.00000000  1
  Ag  Ag0  1  0.43652300  0.25000000  0.00000000  1
  Ag  Ag1  1  0.56347700  0.75000000  0.00000000  1
  P  P0  1  0.24797000  0.70888300  0.15377000  1
  P  P1  1  0.75203000  0.20888300  0.15377000  1
  P  P2  1  0.75203000  0.29111700  0.84623000  1
  P  P3  1  0.24797000  0.79111700  0.84623000  1
  S  S0  1  0.91999100  0.01367200  0.20875800  1
  S  S1  1  0.60446000  0.47400400  0.74140000  1
  S  S2  1  0.22769600  0.02432700  0.21304000  1
  S  S3  1  0.22769600  0.47567300  0.78696000  1
  S  S4  1  0.39554000  0.97400400  0.74140000  1
  S  S5  1  0.77230400  0.52432700  0.21304000  1
  S  S6  1  0.77230400  0.97567300  0.78696000  1
  S  S7  1  0.91999100  0.48632800  0.79124200  1
  S  S8  1  0.08000900  0.98632800  0.79124200  1
  S  S9  1  0.08000900  0.51367200  0.20875800  1
  S  S10  1  0.39554000  0.52599600  0.25860000  1
  S  S11  1  0.60446000  0.02599600  0.25860000  1
loop_
_geom_bond_atom_site_label_1
_geom_bond_atom_site_label_2
_geom_bond_distance
_geom_bond_site_symmetry_2
Ag0 S1 2.738561 1_554
Ag0 S11 2.738561 1_555
Ag0 S4 2.859529 1_544
Ag0 S10 2.859529 1_555
Ag0 S3 2.888854 1_554
Ag0 S2 2.888854 1_555
Ag0 Ag1 3.251010 1_545
Ag0 Ag1 3.251010 1_555
Ag1 S4 2.738561 1_554
Ag1 S10 2.738561 1_555
Ag1 S11 2.859529 1_565
Ag1 S1 2.859529 1_554
Ag1 S6 2.888854 1_554
Ag1 S5 2.888854 1_555
P0 S10 1.974766 1_555
P0 S2 2.029012 1_565
P0 S9 2.134628 1_555
P0 P3 2.229029 1_554
P1 S11 1.974766 1_555
P1 S5 2.029012 1_555
P1 S0 2.134628 1_555
P1 P2 2.229029 1_554
P2 S1 1.974766 1_555
P2 S6 2.029012 1_545
P2 S7 2.134628 1_555
P3 S4 1.974766 1_555
P3 S3 2.029012 1_555
P3 S8 2.134628 1_555
S0 V1 2.419694 1_655
S0 V0 2.469255 1_545
S2 V1 2.493267 1_555
S3 V1 2.493267 1_556
S5 V0 2.493267 1_555
S6 V0 2.493267 1_556
S7 V1 2.419694 1_656
S7 V0 2.469255 1_556
S8 V0 2.419694 1_456
S8 V1 2.469255 1_566
S9 V0 2.419694 1_455
S9 V1 2.469255 1_555
