# generated using pymatgen
data_Rb8In11
_symmetry_space_group_name_H-M   'P 1'
_cell_length_a   18.59735651
_cell_length_b   18.59735651
_cell_length_c   18.59735663
_cell_angle_alpha   32.36104031
_cell_angle_beta   32.36104031
_cell_angle_gamma   32.36104062
_symmetry_Int_Tables_number   1
_chemical_formula_structural   Rb8In11
_chemical_formula_sum   'Rb16 In22'
_cell_volume   1638.22550128
_cell_formula_units_Z   2
loop_
 _symmetry_equiv_pos_site_id
 _symmetry_equiv_pos_as_xyz
  1  'x, y, z'
loop_
 _atom_site_type_symbol
 _atom_site_label
 _atom_site_symmetry_multiplicity
 _atom_site_fract_x
 _atom_site_fract_y
 _atom_site_fract_z
 _atom_site_occupancy
  Rb  Rb0  1  0.40723700  0.18121000  0.84618300  1
  Rb  Rb1  1  0.81879000  0.15381700  0.59276300  1
  Rb  Rb2  1  0.15381700  0.59276300  0.81879000  1
  Rb  Rb3  1  0.34618300  0.68121000  0.90723700  1
  Rb  Rb4  1  0.42051500  0.42051500  0.42051500  1
  Rb  Rb5  1  0.07948500  0.07948500  0.07948500  1
  Rb  Rb6  1  0.84618300  0.40723700  0.18121000  1
  Rb  Rb7  1  0.92051500  0.92051500  0.92051500  1
  Rb  Rb8  1  0.59276300  0.81879000  0.15381700  1
  Rb  Rb9  1  0.68121000  0.90723700  0.34618300  1
  Rb  Rb10  1  0.65381700  0.31879000  0.09276300  1
  Rb  Rb11  1  0.09276300  0.65381700  0.31879000  1
  Rb  Rb12  1  0.57948500  0.57948500  0.57948500  1
  Rb  Rb13  1  0.90723700  0.34618300  0.68121000  1
  Rb  Rb14  1  0.31879000  0.09276300  0.65381700  1
  Rb  Rb15  1  0.18121000  0.84618300  0.40723700  1
  In  In0  1  0.79889700  0.79889700  0.79889700  1
  In  In1  1  0.29889700  0.29889700  0.29889700  1
  In  In2  1  0.77200100  0.06739700  0.50031200  1
  In  In3  1  0.99968800  0.43260300  0.72799900  1
  In  In4  1  0.54375600  0.95624400  0.75000000  1
  In  In5  1  0.20110300  0.20110300  0.20110300  1
  In  In6  1  0.50031200  0.77200100  0.06739700  1
  In  In7  1  0.45624400  0.04375600  0.25000000  1
  In  In8  1  0.06739700  0.50031200  0.77200100  1
  In  In9  1  0.43260300  0.72799900  0.99968800  1
  In  In10  1  0.04375600  0.25000000  0.45624400  1
  In  In11  1  0.56739700  0.27200100  0.00031200  1
  In  In12  1  0.70110300  0.70110300  0.70110300  1
  In  In13  1  0.00031200  0.56739700  0.27200100  1
  In  In14  1  0.72799900  0.99968800  0.43260300  1
  In  In15  1  0.93260300  0.49968800  0.22799900  1
  In  In16  1  0.95624400  0.75000000  0.54375600  1
  In  In17  1  0.49968800  0.22799900  0.93260300  1
  In  In18  1  0.25000000  0.45624400  0.04375600  1
  In  In19  1  0.75000000  0.54375600  0.95624400  1
  In  In20  1  0.22799900  0.93260300  0.49968800  1
  In  In21  1  0.27200100  0.00031200  0.56739700  1
loop_
_geom_bond_atom_site_label_1
_geom_bond_atom_site_label_2
_geom_bond_distance
_geom_bond_site_symmetry_2
Rb0 Rb1 4.193049 1_555
Rb0 Rb2 4.193049 1_555
Rb0 Rb8 4.356767 1_546
Rb0 Rb5 4.526902 1_556
Rb0 Rb4 4.644418 1_555
Rb1 Rb6 4.193049 1_555
Rb1 Rb15 4.356767 1_645
Rb1 Rb7 4.526902 1_545
Rb1 Rb12 4.644418 1_555
Rb2 Rb6 4.356766 1_456
Rb2 Rb7 4.526902 1_455
Rb3 Rb7 4.644418 1_455
Rb4 Rb6 4.644418 1_555
Rb5 Rb6 4.526902 1_455
Rb6 Rb8 4.193049 1_555
Rb7 Rb8 4.526902 1_556
Rb7 Rb9 4.644418 1_556
Rb10 Rb9 4.193049 1_545
Rb10 Rb13 4.193049 1_554
Rb10 Rb3 4.356767 1_554
Rb10 Rb4 4.526902 1_555
Rb10 Rb5 4.644418 1_655
Rb11 Rb9 4.193049 1_455
Rb11 Rb3 4.193049 1_554
Rb11 Rb13 4.356766 1_455
Rb11 Rb4 4.526902 1_555
Rb11 Rb5 4.644418 1_565
Rb12 Rb9 4.526902 1_555
Rb12 Rb13 4.526902 1_555
Rb12 Rb3 4.526902 1_555
Rb12 Rb2 4.644418 1_555
Rb12 Rb8 4.644418 1_555
Rb13 Rb14 4.193049 1_655
Rb13 Rb7 4.644418 1_545
Rb14 Rb3 4.193049 1_545
Rb14 Rb9 4.356767 1_545
Rb14 Rb4 4.526902 1_555
Rb14 Rb5 4.644418 1_556
Rb15 Rb8 4.193049 1_555
Rb15 Rb2 4.193049 1_555
Rb15 Rb5 4.526902 1_565
Rb15 Rb4 4.644418 1_555
In0 In6 3.106237 1_556
In0 In2 3.106237 1_565
In0 In8 3.106237 1_655
In0 In19 3.352831 1_555
In0 In4 3.352831 1_555
In0 In16 3.352831 1_555
In0 Rb15 4.078178 1_655
In0 Rb6 4.078178 1_556
In0 Rb0 4.078178 1_565
In0 Rb1 4.169220 1_565
In0 Rb2 4.169220 1_655
In0 Rb8 4.169220 1_556
In1 In21 3.106237 1_555
In1 In11 3.106237 1_555
In1 In13 3.106237 1_555
In1 In10 3.352831 1_555
In1 In7 3.352831 1_555
In1 In18 3.352831 1_555
In1 Rb3 4.078178 1_554
In1 Rb13 4.078178 1_455
In1 Rb9 4.078178 1_545
In1 Rb10 4.169220 1_555
In1 Rb11 4.169220 1_555
In1 Rb14 4.169220 1_555
In2 In4 3.026872 1_545
In2 Rb6 3.821124 1_555
In2 Rb15 3.836768 1_645
In2 Rb4 3.932038 1_555
In2 Rb1 3.981795 1_555
In2 Rb0 4.111043 1_555
In2 Rb5 4.194563 1_655
In3 In8 3.162462 1_655
In3 Rb14 3.821124 1_655
In3 Rb11 3.836768 1_655
In3 Rb5 3.932038 1_656
In3 Rb13 3.981795 1_555
In3 Rb10 4.111043 1_556
In3 Rb4 4.194563 1_655
In4 In9 3.026872 1_555
In4 In6 3.112431 1_556
In4 Rb0 3.765011 1_565
In4 Rb14 3.765011 1_565
In4 Rb4 4.273670 1_565
In4 Rb5 4.273670 1_566
In5 In7 3.352831 1_555
In5 Rb1 4.078178 1_455
In5 Rb2 4.078178 1_554
In5 Rb8 4.078178 1_545
In5 Rb15 4.169220 1_545
In5 Rb6 4.169220 1_455
In5 Rb0 4.169220 1_554
In6 In9 3.162462 1_554
In6 Rb15 3.821124 1_555
In6 Rb0 3.836768 1_564
In6 Rb4 3.932038 1_555
In6 Rb8 3.981795 1_555
In6 Rb6 4.111043 1_555
In6 Rb5 4.194563 1_565
In7 Rb9 3.765011 1_545
In7 Rb8 3.765011 1_545
In7 Rb12 4.273670 1_545
In7 Rb7 4.273670 1_544
In8 Rb0 3.821124 1_555
In8 Rb6 3.836768 1_456
In8 Rb4 3.932038 1_555
In8 Rb2 3.981795 1_555
In8 Rb15 4.111043 1_555
In8 Rb5 4.194563 1_556
In9 Rb11 3.821124 1_556
In9 Rb10 3.836768 1_556
In9 Rb5 3.932038 1_566
In9 Rb3 3.981795 1_555
In9 Rb14 4.111043 1_565
In9 Rb4 4.194563 1_556
In10 In21 3.026872 1_555
In10 In15 3.026872 1_455
In10 In13 3.112431 1_555
In10 In20 3.112431 1_545
In10 In5 3.352831 1_555
In10 In18 3.702584 1_555
In10 In7 3.702584 1_555
In10 Rb1 3.765010 1_455
In10 Rb13 3.765011 1_455
In10 Rb7 4.273670 1_445
In10 Rb12 4.273670 1_455
In11 In7 3.026872 1_555
In11 In18 3.112431 1_555
In11 In17 3.162462 1_554
In11 Rb13 3.821124 1_554
In11 Rb3 3.836768 1_554
In11 Rb7 3.932038 1_544
In11 Rb10 3.981795 1_555
In11 Rb9 4.111043 1_545
In11 Rb12 4.194563 1_554
In12 In14 3.106237 1_555
In12 In9 3.106237 1_555
In12 In3 3.106237 1_555
In12 In16 3.352831 1_555
In12 In4 3.352831 1_555
In12 In19 3.352831 1_555
In12 Rb10 4.078178 1_556
In12 Rb11 4.078178 1_655
In12 Rb14 4.078178 1_565
In12 Rb3 4.169220 1_555
In12 Rb13 4.169220 1_555
In12 Rb9 4.169220 1_555
In13 In18 3.026872 1_555
In13 In15 3.162462 1_455
In13 Rb9 3.821124 1_455
In13 Rb13 3.836768 1_455
In13 Rb7 3.932038 1_454
In13 Rb11 3.981795 1_555
In13 Rb3 4.111043 1_554
In13 Rb12 4.194563 1_455
In14 In16 3.026872 1_555
In14 In4 3.112431 1_555
In14 In2 3.162462 1_565
In14 Rb10 3.821124 1_565
In14 Rb14 3.836768 1_565
In14 Rb5 3.932038 1_665
In14 Rb9 3.981795 1_555
In14 Rb11 4.111043 1_655
In14 Rb4 4.194563 1_565
In15 In5 3.106237 1_655
In15 In18 3.112431 1_655
In15 Rb8 3.821124 1_555
In15 Rb2 3.836768 1_654
In15 Rb12 3.932038 1_555
In15 Rb6 3.981795 1_555
In15 Rb1 4.111043 1_555
In15 Rb7 4.194563 1_554
In16 In8 3.026872 1_655
In16 In3 3.112431 1_555
In16 In2 3.112431 1_565
In16 In19 3.702584 1_555
In16 In4 3.702584 1_555
In16 Rb15 3.765010 1_655
In16 Rb11 3.765011 1_655
In16 Rb5 4.273670 1_665
In16 Rb4 4.273670 1_655
In17 In18 3.026872 1_556
In17 In5 3.106237 1_556
In17 In7 3.112431 1_556
In17 Rb1 3.821124 1_555
In17 Rb8 3.836768 1_546
In17 Rb12 3.932038 1_555
In17 Rb0 3.981795 1_555
In17 Rb2 4.111043 1_555
In17 Rb7 4.194563 1_545
In18 In5 3.352831 1_555
In18 In7 3.702584 1_555
In18 Rb3 3.765010 1_554
In18 Rb2 3.765011 1_554
In18 Rb12 4.273670 1_554
In18 Rb7 4.273670 1_454
In19 In6 3.026872 1_556
In19 In3 3.026872 1_555
In19 In8 3.112431 1_655
In19 In9 3.112431 1_555
In19 In4 3.702584 1_555
In19 Rb10 3.765010 1_556
In19 Rb6 3.765011 1_556
In19 Rb4 4.273670 1_556
In19 Rb5 4.273670 1_656
In20 In7 3.026872 1_565
In20 In5 3.106237 1_565
In20 In21 3.162462 1_565
In20 Rb2 3.821124 1_555
In20 Rb1 3.836768 1_465
In20 Rb12 3.932038 1_555
In20 Rb15 3.981795 1_555
In20 Rb8 4.111043 1_555
In20 Rb7 4.194563 1_455
In21 In7 3.112431 1_555
In21 Rb3 3.821124 1_545
In21 Rb9 3.836768 1_545
In21 Rb7 3.932038 1_445
In21 Rb14 3.981795 1_555
In21 Rb13 4.111043 1_455
In21 Rb12 4.194563 1_545
