# generated using pymatgen
data_Na8Ga42O67
_symmetry_space_group_name_H-M   'P 1'
_cell_length_a   5.97995300
_cell_length_b   12.27585387
_cell_length_c   20.70908432
_cell_angle_alpha   97.89447886
_cell_angle_beta   89.91899936
_cell_angle_gamma   104.01946383
_symmetry_Int_Tables_number   1
_chemical_formula_structural   Na8Ga42O67
_chemical_formula_sum   'Na8 Ga42 O67'
_cell_volume   1460.16971614
_cell_formula_units_Z   1
loop_
 _symmetry_equiv_pos_site_id
 _symmetry_equiv_pos_as_xyz
  1  'x, y, z'
loop_
 _atom_site_type_symbol
 _atom_site_label
 _atom_site_symmetry_multiplicity
 _atom_site_fract_x
 _atom_site_fract_y
 _atom_site_fract_z
 _atom_site_occupancy
  Na  Na0  1  0.99327500  0.96036900  0.15996900  1
  Na  Na1  1  0.31655400  0.48243400  0.21662500  1
  Na  Na2  1  0.76715100  0.47284100  0.48806200  1
  Na  Na3  1  0.03230100  0.04974300  0.84051300  1
  Na  Na4  1  0.90860400  0.41406700  0.30847400  1
  Na  Na5  1  0.36567500  0.49983800  0.00549300  1
  Na  Na6  1  0.30754700  0.49659800  0.60774800  1
  Na  Na7  1  0.82358700  0.58732500  0.31041000  1
  Ga  Ga0  1  0.00567600  0.99346100  0.99839200  1
  Ga  Ga1  1  0.40293600  0.77853400  0.15084100  1
  Ga  Ga2  1  0.14633300  0.78280600  0.01804000  1
  Ga  Ga3  1  0.65111400  0.78782600  0.01735700  1
  Ga  Ga4  1  0.52645200  0.03978500  0.08890400  1
  Ga  Ga5  1  0.65734800  0.29773500  0.10615200  1
  Ga  Ga6  1  0.86423200  0.70616500  0.14386800  1
  Ga  Ga7  1  0.91406800  0.79678000  0.40374100  1
  Ga  Ga8  1  0.65182300  0.78454500  0.27663200  1
  Ga  Ga9  1  0.16973000  0.78633100  0.27660200  1
  Ga  Ga10  1  0.50693900  0.98928500  0.24848000  1
  Ga  Ga11  1  0.03112100  0.04667200  0.33845500  1
  Ga  Ga12  1  0.85755900  0.20581300  0.22486900  1
  Ga  Ga13  1  0.35135700  0.21515800  0.22866700  1
  Ga  Ga14  1  0.11528100  0.21889200  0.10227300  1
  Ga  Ga15  1  0.20525300  0.34873400  0.36958400  1
  Ga  Ga16  1  0.34441700  0.65327800  0.39194700  1
  Ga  Ga17  1  0.40279800  0.79074000  0.65176900  1
  Ga  Ga18  1  0.15597800  0.78155200  0.52789100  1
  Ga  Ga19  1  0.65421400  0.78244800  0.52826700  1
  Ga  Ga20  1  0.01012400  0.00037200  0.50362700  1
  Ga  Ga21  1  0.48587800  0.94844100  0.41524500  1
  Ga  Ga22  1  0.53485500  0.04925600  0.58702000  1
  Ga  Ga23  1  0.37259700  0.21302300  0.47939800  1
  Ga  Ga24  1  0.87124000  0.21321100  0.47694200  1
  Ga  Ga25  1  0.61010900  0.20133700  0.35264300  1
  Ga  Ga26  1  0.68548000  0.34925500  0.61397100  1
  Ga  Ga27  1  0.83278800  0.64675400  0.63794500  1
  Ga  Ga28  1  0.88780800  0.76363200  0.89143200  1
  Ga  Ga29  1  0.64961300  0.77924300  0.77518100  1
  Ga  Ga30  1  0.14219100  0.77662400  0.77541600  1
  Ga  Ga31  1  0.98414800  0.95480200  0.66617600  1
  Ga  Ga32  1  0.86867900  0.22207500  0.72774600  1
  Ga  Ga33  1  0.11689000  0.21552600  0.60353500  1
  Ga  Ga34  1  0.37132800  0.22409700  0.72774400  1
  Ga  Ga35  1  0.18093200  0.34825400  0.85938600  1
  Ga  Ga36  1  0.32507200  0.63635300  0.88779100  1
  Ga  Ga37  1  0.48281800  0.95175800  0.90997400  1
  Ga  Ga38  1  0.50974800  0.00797600  0.74994300  1
  Ga  Ga39  1  0.35882100  0.21202300  0.97225800  1
  Ga  Ga40  1  0.86738700  0.21788500  0.97234100  1
  Ga  Ga41  1  0.61631700  0.21961800  0.84401600  1
  O  O0  1  0.15738400  0.29980400  0.02899800  1
  O  O1  1  0.45291700  0.88108000  0.07780900  1
  O  O2  1  0.55693400  0.09814100  0.18335200  1
  O  O3  1  0.30286100  0.10788000  0.05934200  1
  O  O4  1  0.81436400  0.11412300  0.06070500  1
  O  O5  1  0.63743300  0.27949200  0.27563200  1
  O  O6  1  0.41262000  0.31627600  0.15694000  1
  O  O7  1  0.91328200  0.31556600  0.15900700  1
  O  O8  1  0.65277100  0.30355700  0.02037900  1
  O  O9  1  0.86493500  0.69192400  0.23178700  1
  O  O10  1  0.59549000  0.68940700  0.10036100  1
  O  O11  1  0.12108800  0.69815000  0.10078000  1
  O  O12  1  0.95384800  0.88486800  0.32582300  1
  O  O13  1  0.67373900  0.87828300  0.20741100  1
  O  O14  1  0.23433500  0.88017500  0.20843400  1
  O  O15  1  0.94889500  0.88414900  0.05932600  1
  O  O16  1  0.06249600  0.10471700  0.42920200  1
  O  O17  1  0.79266600  0.09788800  0.29805800  1
  O  O18  1  0.32025200  0.09883300  0.29938000  1
  O  O19  1  0.07895600  0.13960000  0.18004800  1
  O  O20  1  0.15778200  0.29079500  0.52340100  1
  O  O21  1  0.90316600  0.29979500  0.40036500  1
  O  O22  1  0.43919200  0.30309000  0.40490100  1
  O  O23  1  0.15538900  0.30456500  0.27817300  1
  O  O24  1  0.22851500  0.50164200  0.36391000  1
  O  O25  1  0.36785400  0.70181500  0.47947900  1
  O  O26  1  0.12070200  0.71346900  0.35515400  1
  O  O27  1  0.62958800  0.70340900  0.35373600  1
  O  O28  1  0.36316500  0.68967900  0.23287000  1
  O  O29  1  0.45149600  0.88498800  0.57083200  1
  O  O30  1  0.19627800  0.90077500  0.45384000  1
  O  O31  1  0.72747100  0.89887800  0.45289500  1
  O  O32  1  0.46664400  0.89657400  0.32494600  1
  O  O33  1  0.56266500  0.10649800  0.67280300  1
  O  O34  1  0.29746400  0.10157900  0.54457600  1
  O  O35  1  0.82385000  0.10144300  0.54392200  1
  O  O36  1  0.56632300  0.11132400  0.42560000  1
  O  O37  1  0.66024600  0.30515700  0.76860500  1
  O  O38  1  0.39734600  0.30123200  0.64729900  1
  O  O39  1  0.92347500  0.30317200  0.64815900  1
  O  O40  1  0.66188500  0.29197000  0.52176000  1
  O  O41  1  0.72765500  0.49773100  0.60015800  1
  O  O42  1  0.85638200  0.69598400  0.72475600  1
  O  O43  1  0.59660000  0.70171100  0.60095400  1
  O  O44  1  0.12226800  0.69792600  0.59983100  1
  O  O45  1  0.87093800  0.71030900  0.47719200  1
  O  O46  1  0.93824800  0.86035000  0.82172500  1
  O  O47  1  0.68995900  0.89951600  0.69992500  1
  O  O48  1  0.22329000  0.89961300  0.69903300  1
  O  O49  1  0.95719100  0.89563200  0.57014100  1
  O  O50  1  0.05801200  0.11001700  0.94741500  1
  O  O51  1  0.78108900  0.11304600  0.78930600  1
  O  O52  1  0.34377600  0.11387700  0.78833600  1
  O  O53  1  0.06418900  0.11593000  0.67126700  1
  O  O54  1  0.89587600  0.29033200  0.89694100  1
  O  O55  1  0.40093200  0.28517800  0.89702300  1
  O  O56  1  0.15772100  0.30477300  0.76947700  1
  O  O57  1  0.28376500  0.49230600  0.89958500  1
  O  O58  1  0.35986600  0.70025900  0.98032800  1
  O  O59  1  0.10631500  0.69116500  0.84858000  1
  O  O60  1  0.59679200  0.69795800  0.84957100  1
  O  O61  1  0.36479200  0.71304700  0.72604700  1
  O  O62  1  0.20208300  0.89923800  0.95256200  1
  O  O63  1  0.71259700  0.90184300  0.95298000  1
  O  O64  1  0.45532000  0.90066900  0.81866500  1
  O  O65  1  0.56400200  0.11328900  0.93091300  1
  O  O66  1  0.85693300  0.70366000  0.97203300  1
loop_
_geom_bond_atom_site_label_1
_geom_bond_atom_site_label_2
_geom_bond_distance
_geom_bond_site_symmetry_2
Na0 O19 2.116473 1_665
Na0 O15 2.153009 1_555
Na0 O13 2.228368 1_555
Na0 O14 2.239991 1_655
Na1 O6 2.427227 1_555
Na1 O28 2.466768 1_555
Na1 O23 2.657547 1_555
Na1 O7 2.894609 1_455
Na1 O24 3.081258 1_555
Na2 O41 2.318758 1_555
Na2 O40 2.358052 1_555
Na2 O22 2.863251 1_555
Na2 O45 2.870033 1_555
Na2 O21 2.871523 1_555
Na3 O52 2.184997 1_555
Na3 O51 2.186693 1_455
Na3 O50 2.228920 1_555
Na3 O46 2.234218 1_445
Na4 O5 2.053738 1_555
Na4 O24 2.191853 1_655
Na4 O23 2.259514 1_655
Na4 Na7 2.298728 1_555
Na4 O21 2.510222 1_555
Na5 O57 2.232541 1_554
Na5 O0 2.581284 1_555
Na5 O58 2.592246 1_554
Na5 O10 2.892430 1_555
Na6 O41 2.513709 1_555
Na6 O43 2.708416 1_555
Na6 O38 2.806389 1_555
Na6 O20 2.816359 1_555
Na6 O44 2.966676 1_555
Na6 O39 3.084092 1_455
Na6 O61 3.309486 1_555
Na6 O41 3.474988 1_455
Na7 O27 2.151371 1_555
Na7 O26 2.165823 1_655
Na7 O9 2.186393 1_555
Ga0 O50 1.859225 1_565
Ga0 O15 1.936886 1_456
Ga0 O62 1.992892 1_555
Ga0 O63 1.995006 1_455
Ga0 O3 2.243718 1_566
Ga0 O4 2.336641 1_466
Ga1 O11 1.951240 1_555
Ga1 O10 1.977015 1_555
Ga1 O13 2.035886 1_555
Ga1 O14 2.047727 1_555
Ga1 O1 2.073854 1_555
Ga1 O28 2.124676 1_555
Ga2 O58 1.916769 1_554
Ga2 O66 1.944846 1_454
Ga2 O15 2.022208 1_455
Ga2 O62 2.071957 1_554
Ga2 O11 2.109778 1_555
Ga2 O1 2.207549 1_555
Ga3 O58 1.909756 1_554
Ga3 O66 1.951877 1_554
Ga3 O15 2.006597 1_555
Ga3 O63 2.033097 1_554
Ga3 O1 2.131193 1_555
Ga3 O10 2.213423 1_555
Ga4 O1 1.871908 1_545
Ga4 O4 1.876264 1_555
Ga4 O3 1.883007 1_555
Ga4 O2 1.981142 1_555
Ga5 O8 1.788012 1_555
Ga5 O7 1.834386 1_555
Ga5 O6 1.841473 1_555
Ga6 O11 1.791756 1_655
Ga6 O10 1.797153 1_555
Ga6 O9 1.852950 1_555
Ga7 O45 1.953678 1_555
Ga7 O26 1.977704 1_655
Ga7 O27 2.003589 1_555
Ga7 O30 2.037517 1_655
Ga7 O31 2.043543 1_555
Ga7 O12 2.045301 1_555
Ga8 O13 1.943137 1_555
Ga8 O28 1.974262 1_555
Ga8 O27 1.982790 1_555
Ga8 O9 2.046456 1_555
Ga8 O12 2.097460 1_555
Ga8 O32 2.115509 1_555
Ga9 O14 1.923238 1_555
Ga9 O26 1.950272 1_555
Ga9 O28 1.983128 1_555
Ga9 O9 2.052419 1_455
Ga9 O32 2.110679 1_555
Ga9 O12 2.140787 1_455
Ga10 O14 1.944227 1_555
Ga10 O13 1.978090 1_555
Ga10 O2 1.998643 1_565
Ga10 O32 2.054768 1_555
Ga10 O17 2.067913 1_565
Ga10 O18 2.121450 1_565
Ga11 O12 1.907928 1_445
Ga11 O16 1.908673 1_555
Ga11 O18 1.912123 1_555
Ga11 O17 1.926323 1_455
Ga12 O19 1.893602 1_655
Ga12 O5 1.991911 1_555
Ga12 O7 2.018073 1_555
Ga12 O2 2.063741 1_555
Ga12 O23 2.109980 1_655
Ga12 O17 2.122265 1_555
Ga13 O19 1.882447 1_555
Ga13 O5 1.906659 1_555
Ga13 O23 1.984859 1_555
Ga13 O6 2.041105 1_555
Ga13 O18 2.159443 1_555
Ga13 O2 2.222037 1_555
Ga14 O0 1.909040 1_555
Ga14 O19 1.978906 1_555
Ga14 O4 2.052363 1_455
Ga14 O3 2.076249 1_555
Ga14 O6 2.115749 1_555
Ga14 O7 2.134350 1_455
Ga15 O22 1.816912 1_555
Ga15 O24 1.868316 1_555
Ga15 O21 1.899133 1_455
Ga15 O23 1.899422 1_555
Ga16 O25 1.823221 1_555
Ga16 O24 1.833491 1_555
Ga16 O27 1.880019 1_555
Ga16 O26 1.884867 1_555
Ga17 O61 1.903794 1_555
Ga17 O43 1.984755 1_555
Ga17 O44 2.002911 1_555
Ga17 O48 2.056543 1_555
Ga17 O47 2.062640 1_555
Ga17 O29 2.144970 1_555
Ga18 O44 1.906058 1_555
Ga18 O45 1.950178 1_455
Ga18 O25 1.973903 1_555
Ga18 O29 2.033009 1_555
Ga18 O49 2.146367 1_455
Ga18 O30 2.235265 1_555
Ga19 O43 1.899947 1_555
Ga19 O25 1.960078 1_555
Ga19 O45 1.969134 1_555
Ga19 O29 2.064591 1_555
Ga19 O49 2.102113 1_555
Ga19 O31 2.231288 1_555
Ga20 O35 1.964468 1_455
Ga20 O34 1.973720 1_555
Ga20 O49 1.984653 1_445
Ga20 O30 2.026570 1_545
Ga20 O31 2.034253 1_445
Ga20 O16 2.112100 1_555
Ga21 O32 1.885105 1_555
Ga21 O30 1.901031 1_555
Ga21 O31 1.903863 1_555
Ga21 O36 1.921453 1_565
Ga22 O33 1.810703 1_555
Ga22 O29 1.937785 1_545
Ga22 O34 1.949559 1_555
Ga22 O35 1.951897 1_555
Ga23 O40 1.913101 1_555
Ga23 O20 1.934927 1_555
Ga23 O22 2.003665 1_555
Ga23 O34 2.025614 1_555
Ga23 O36 2.111138 1_555
Ga23 O16 2.172165 1_555
Ga24 O40 1.923592 1_555
Ga24 O20 1.931613 1_655
Ga24 O21 2.011201 1_555
Ga24 O35 2.054301 1_555
Ga24 O16 2.105336 1_655
Ga24 O36 2.134205 1_555
Ga25 O5 1.958133 1_555
Ga25 O36 1.972207 1_555
Ga25 O22 2.005039 1_555
Ga25 O21 2.039416 1_555
Ga25 O17 2.087142 1_555
Ga25 O18 2.090903 1_555
Ga26 O39 1.830230 1_555
Ga26 O41 1.840614 1_555
Ga26 O38 1.846346 1_555
Ga26 O40 1.935155 1_555
Ga27 O42 1.810549 1_555
Ga27 O41 1.845310 1_555
Ga27 O44 1.902556 1_655
Ga27 O43 1.908801 1_555
Ga28 O60 1.887463 1_555
Ga28 O59 1.905076 1_655
Ga28 O66 1.906060 1_555
Ga28 O46 1.969928 1_555
Ga28 O62 2.412009 1_655
Ga28 O63 2.421675 1_555
Ga29 O61 1.924531 1_555
Ga29 O60 1.933117 1_555
Ga29 O46 1.951412 1_555
Ga29 O42 1.994849 1_555
Ga29 O64 2.202311 1_555
Ga29 O47 2.263941 1_555
Ga30 O61 1.925267 1_555
Ga30 O59 1.941387 1_555
Ga30 O46 1.948511 1_455
Ga30 O42 1.975288 1_455
Ga30 O64 2.208126 1_555
Ga30 O48 2.305635 1_555
Ga31 O48 1.888347 1_655
Ga31 O47 1.895348 1_555
Ga31 O53 1.907037 1_665
Ga31 O49 2.014014 1_555
Ga32 O56 1.917835 1_655
Ga32 O37 1.919793 1_555
Ga32 O51 1.954007 1_555
Ga32 O39 2.026349 1_555
Ga32 O53 2.179074 1_655
Ga32 O33 2.227297 1_555
Ga33 O38 1.904863 1_555
Ga33 O39 1.917331 1_455
Ga33 O53 1.960808 1_555
Ga33 O20 1.994516 1_555
Ga33 O34 2.207350 1_555
Ga33 O35 2.213212 1_455
Ga34 O37 1.905543 1_555
Ga34 O56 1.932378 1_555
Ga34 O52 1.946844 1_555
Ga34 O38 2.014300 1_555
Ga34 O53 2.214120 1_555
Ga34 O33 2.243474 1_555
Ga35 O57 1.807891 1_555
Ga35 O56 1.860859 1_555
Ga35 O54 1.891320 1_455
Ga35 O55 1.897388 1_555
Ga36 O57 1.776062 1_555
Ga36 O59 1.844712 1_555
Ga36 O60 1.845002 1_555
Ga36 O58 1.959648 1_555
Ga37 O63 1.902109 1_555
Ga37 O64 1.902923 1_555
Ga37 O62 1.907732 1_555
Ga37 O65 1.911470 1_565
Ga38 O52 1.909520 1_555
Ga38 O51 1.913612 1_555
Ga38 O64 2.042677 1_545
Ga38 O47 2.078504 1_545
Ga38 O48 2.081176 1_545
Ga38 O33 2.111580 1_555
Ga39 O55 1.889730 1_555
Ga39 O50 1.950073 1_555
Ga39 O8 2.021377 1_556
Ga39 O65 2.034724 1_555
Ga39 O0 2.066398 1_556
Ga39 O3 2.328759 1_556
Ga40 O54 1.888239 1_555
Ga40 O50 1.965003 1_655
Ga40 O8 2.026272 1_556
Ga40 O0 2.057179 1_656
Ga40 O65 2.061384 1_555
Ga40 O4 2.348333 1_556
Ga41 O55 1.940924 1_555
Ga41 O54 1.946867 1_555
Ga41 O37 1.981462 1_555
Ga41 O51 2.044585 1_555
Ga41 O52 2.059104 1_555
Ga41 O65 2.342187 1_555
