# generated using pymatgen
data_PbF2
_symmetry_space_group_name_H-M   'P 1'
_cell_length_a   4.25207497
_cell_length_b   4.25207497
_cell_length_c   6.02405600
_cell_angle_alpha   90.00000000
_cell_angle_beta   90.00000000
_cell_angle_gamma   90.17598424
_symmetry_Int_Tables_number   1
_chemical_formula_structural   PbF2
_chemical_formula_sum   'Pb2 F4'
_cell_volume   108.91527144
_cell_formula_units_Z   2
loop_
 _symmetry_equiv_pos_site_id
 _symmetry_equiv_pos_as_xyz
  1  'x, y, z'
loop_
 _atom_site_type_symbol
 _atom_site_label
 _atom_site_symmetry_multiplicity
 _atom_site_fract_x
 _atom_site_fract_y
 _atom_site_fract_z
 _atom_site_occupancy
  Pb  Pb0  1  0.97747900  0.02252100  0.50000000  1
  Pb  Pb1  1  0.47747900  0.52252100  0.00000000  1
  F  F0  1  0.97360800  0.54133400  0.23522700  1
  F  F1  1  0.45866600  0.02639200  0.76477300  1
  F  F2  1  0.47360800  0.04133400  0.26477300  1
  F  F3  1  0.95866600  0.52639200  0.73522700  1
loop_
_geom_bond_atom_site_label_1
_geom_bond_atom_site_label_2
_geom_bond_distance
_geom_bond_site_symmetry_2
F0 Pb1 2.542367 1_555
F0 Pb1 2.570154 1_655
F0 Pb0 2.594302 1_565
F0 Pb0 2.722337 1_555
F0 F2 3.007322 1_555
F0 F2 3.007322 1_665
F0 F3 3.013364 1_555
F0 F3 3.013364 1_554
F0 F2 3.016541 1_565
F0 F2 3.016541 1_655
F1 Pb1 2.542367 1_556
F1 Pb1 2.570154 1_546
F1 Pb0 2.594302 1_455
F1 Pb0 2.722337 1_555
F1 F3 3.007322 1_445
F1 F3 3.007322 1_555
F1 F2 3.013364 1_555
F1 F2 3.013364 1_556
F1 F3 3.016541 1_455
F1 F3 3.016541 1_545
F2 Pb0 2.542367 1_455
F2 Pb0 2.570154 1_555
F2 Pb1 2.594302 1_555
F2 Pb1 2.722337 1_545
F3 Pb0 2.542367 1_565
F3 Pb0 2.570154 1_555
F3 Pb1 2.594302 1_556
F3 Pb1 2.722337 1_656
