# generated using pymatgen
data_NaSr3NbO6
_symmetry_space_group_name_H-M   'P 1'
_cell_length_a   6.91993542
_cell_length_b   6.91993542
_cell_length_c   6.91993529
_cell_angle_alpha   91.24169572
_cell_angle_beta   91.24169572
_cell_angle_gamma   91.24169178
_symmetry_Int_Tables_number   1
_chemical_formula_structural   NaSr3NbO6
_chemical_formula_sum   'Na2 Sr6 Nb2 O12'
_cell_volume   331.12774097
_cell_formula_units_Z   2
loop_
 _symmetry_equiv_pos_site_id
 _symmetry_equiv_pos_as_xyz
  1  'x, y, z'
loop_
 _atom_site_type_symbol
 _atom_site_label
 _atom_site_symmetry_multiplicity
 _atom_site_fract_x
 _atom_site_fract_y
 _atom_site_fract_z
 _atom_site_occupancy
  Na  Na0  1  0.75000000  0.75000000  0.75000000  1
  Na  Na1  1  0.25000000  0.25000000  0.25000000  1
  Sr  Sr0  1  0.75000000  0.10079700  0.39920300  1
  Sr  Sr1  1  0.39920300  0.75000000  0.10079700  1
  Sr  Sr2  1  0.10079700  0.39920300  0.75000000  1
  Sr  Sr3  1  0.25000000  0.89920300  0.60079700  1
  Sr  Sr4  1  0.60079700  0.25000000  0.89920300  1
  Sr  Sr5  1  0.89920300  0.60079700  0.25000000  1
  Nb  Nb0  1  0.00000000  0.00000000  0.00000000  1
  Nb  Nb1  1  0.50000000  0.50000000  0.50000000  1
  O  O0  1  0.92763400  0.05384000  0.71942100  1
  O  O1  1  0.71942100  0.92763400  0.05384000  1
  O  O2  1  0.05384000  0.71942100  0.92763400  1
  O  O3  1  0.57236600  0.78057900  0.44616000  1
  O  O4  1  0.44616000  0.57236600  0.78057900  1
  O  O5  1  0.78057900  0.44616000  0.57236600  1
  O  O6  1  0.07236600  0.94616000  0.28057900  1
  O  O7  1  0.28057900  0.07236600  0.94616000  1
  O  O8  1  0.94616000  0.28057900  0.07236600  1
  O  O9  1  0.42763400  0.21942100  0.55384000  1
  O  O10  1  0.21942100  0.55384000  0.42763400  1
  O  O11  1  0.55384000  0.42763400  0.21942100  1
loop_
_geom_bond_atom_site_label_1
_geom_bond_atom_site_label_2
_geom_bond_distance
_geom_bond_site_symmetry_2
Na0 O1 2.427967 1_556
Na0 O3 2.427967 1_555
Na0 O2 2.427967 1_655
Na0 O5 2.427967 1_555
Na0 O0 2.427967 1_565
Na0 O4 2.427967 1_555
Na1 O9 2.427967 1_555
Na1 O7 2.427967 1_554
Na1 O10 2.427967 1_555
Na1 O8 2.427967 1_455
Na1 O11 2.427967 1_555
Na1 O6 2.427967 1_545
Nb0 O6 2.038784 1_545
Nb0 O0 2.038784 1_454
Nb0 O8 2.038784 1_455
Nb0 O2 2.038784 1_544
Nb0 O7 2.038784 1_554
Nb0 O1 2.038784 1_445
Nb1 O4 2.038784 1_555
Nb1 O11 2.038784 1_555
Nb1 O5 2.038784 1_555
Nb1 O10 2.038784 1_555
Nb1 O3 2.038784 1_555
Nb1 O9 2.038784 1_555
O0 Sr0 2.541099 1_555
O0 Sr3 2.634369 1_645
O0 Sr2 2.652394 1_655
O0 Sr4 2.947434 1_555
O1 Sr1 2.541099 1_555
O1 Sr4 2.634369 1_564
O1 Sr0 2.652394 1_565
O1 Sr5 2.947434 1_555
O2 Sr2 2.541099 1_555
O2 Sr5 2.634369 1_456
O2 Sr1 2.652394 1_556
O2 Sr3 2.947434 1_555
O3 Sr0 2.541099 1_565
O3 Sr3 2.634369 1_555
O3 Sr1 2.652394 1_555
O3 Sr5 2.947434 1_555
O4 Sr1 2.541099 1_556
O4 Sr4 2.634369 1_555
O4 Sr2 2.652394 1_555
O4 Sr3 2.947434 1_555
O5 Sr2 2.541099 1_655
O5 Sr5 2.634369 1_555
O5 Sr0 2.652394 1_555
O5 Sr4 2.947434 1_555
O6 Sr3 2.541099 1_555
O6 Sr0 2.634369 1_465
O6 Sr5 2.652394 1_455
O6 Sr1 2.947434 1_555
O7 Sr4 2.541099 1_555
O7 Sr1 2.634369 1_546
O7 Sr3 2.652394 1_545
O7 Sr2 2.947434 1_555
O8 Sr5 2.541099 1_555
O8 Sr2 2.634369 1_654
O8 Sr4 2.652394 1_554
O8 Sr0 2.947434 1_555
O9 Sr3 2.541099 1_545
O9 Sr0 2.634369 1_555
O9 Sr4 2.652394 1_555
O9 Sr2 2.947434 1_555
O10 Sr5 2.541099 1_455
O10 Sr2 2.634369 1_555
O10 Sr3 2.652394 1_555
O10 Sr1 2.947434 1_555
O11 Sr4 2.541099 1_554
O11 Sr1 2.634369 1_555
O11 Sr5 2.652394 1_555
O11 Sr0 2.947434 1_555
