# generated using pymatgen
data_CeCoGeH
_symmetry_space_group_name_H-M   'P 1'
_cell_length_a   4.07408703
_cell_length_b   4.07408703
_cell_length_c   7.21731922
_cell_angle_alpha   90.00000000
_cell_angle_beta   90.00000000
_cell_angle_gamma   90.00000000
_symmetry_Int_Tables_number   1
_chemical_formula_structural   CeCoGeH
_chemical_formula_sum   'Ce2 Co2 Ge2 H2'
_cell_volume   119.79440054
_cell_formula_units_Z   2
loop_
 _symmetry_equiv_pos_site_id
 _symmetry_equiv_pos_as_xyz
  1  'x, y, z'
loop_
 _atom_site_type_symbol
 _atom_site_label
 _atom_site_symmetry_multiplicity
 _atom_site_fract_x
 _atom_site_fract_y
 _atom_site_fract_z
 _atom_site_occupancy
  Ce  Ce0  1  0.50000000  -0.00000000  0.32244495  1
  Ce  Ce1  1  -0.00000000  0.50000000  0.67755505  1
  Co  Co0  1  0.50000000  0.50000000  0.00000000  1
  Co  Co1  1  0.00000000  -0.00000000  -0.00000000  1
  Ge  Ge0  1  0.50000000  -0.00000000  0.83558678  1
  Ge  Ge1  1  0.00000000  0.50000000  0.16441322  1
  H  H0  1  -0.00000000  -0.00000000  0.50000000  1
  H  H1  1  0.50000000  0.50000000  0.50000000  1
loop_
_geom_bond_atom_site_label_1
_geom_bond_atom_site_label_2
_geom_bond_distance
_geom_bond_site_symmetry_2
Ce0 H1 2.406598 1_545
Ce0 H1 2.406598 1_555
Ce0 H0 2.406598 1_555
Ce0 H0 2.406598 1_655
Ce0 Co1 3.092790 1_655
Ce0 Co0 3.092790 1_555
Ce0 Co0 3.092790 1_545
Ce0 Co1 3.092790 1_555
Ce0 Ge1 3.098384 1_655
Ce0 Ge1 3.098384 1_645
Ce0 Ge1 3.098384 1_545
Ce0 Ge1 3.098384 1_555
Ce1 H1 2.406598 1_555
Ce1 H1 2.406598 1_455
Ce1 H0 2.406598 1_565
Ce1 H0 2.406598 1_555
Ce1 Co1 3.092790 1_566
Ce1 Co0 3.092790 1_456
Ce1 Co0 3.092790 1_556
Ce1 Co1 3.092790 1_556
Ce1 Ge0 3.098384 1_465
Ce1 Ge0 3.098384 1_555
Ce1 Ge0 3.098384 1_455
Ce1 Ge0 3.098384 1_565
Co0 Ge1 2.357460 1_655
Co0 Ge1 2.357460 1_555
Co0 Ge0 2.357460 1_564
Co0 Ge0 2.357460 1_554
Co0 Co1 2.880815 1_555
Co0 Co1 2.880815 1_655
Co0 Co1 2.880815 1_665
Co0 Co1 2.880815 1_565
Co1 Ge1 2.357460 1_545
Co1 Ge1 2.357460 1_555
Co1 Ge0 2.357460 1_454
Co1 Ge0 2.357460 1_554
Ge0 H0 3.164776 1_655
Ge0 H1 3.164776 1_545
Ge0 H1 3.164776 1_555
Ge0 H0 3.164776 1_555
Ge1 H1 3.164776 1_555
Ge1 H0 3.164776 1_565
Ge1 H1 3.164776 1_455
Ge1 H0 3.164776 1_555
H0 H1 2.880815 1_455
H0 H1 2.880815 1_555
H0 H1 2.880815 1_545
H0 H1 2.880815 1_445
