# generated using pymatgen
data_Te2Mo
_symmetry_space_group_name_H-M   'P 1'
_cell_length_a   7.13131030
_cell_length_b   7.13130794
_cell_length_c   29.29555682
_cell_angle_alpha   90.00000000
_cell_angle_beta   90.00000000
_cell_angle_gamma   120.00000106
_symmetry_Int_Tables_number   1
_chemical_formula_structural   Te2Mo
_chemical_formula_sum   'Te32 Mo16'
_cell_volume   1290.24120773
_cell_formula_units_Z   16
loop_
 _symmetry_equiv_pos_site_id
 _symmetry_equiv_pos_as_xyz
  1  'x, y, z'
loop_
 _atom_site_type_symbol
 _atom_site_label
 _atom_site_symmetry_multiplicity
 _atom_site_fract_x
 _atom_site_fract_y
 _atom_site_fract_z
 _atom_site_occupancy
  Te  Te0_0  1  0.16666650  0.33333350  0.31391134  1
  Te  Te0_1  1  0.16666650  0.33333350  0.81391134  1
  Te  Te0_2  1  0.16666650  0.83333350  0.31391134  1
  Te  Te0_3  1  0.16666650  0.83333350  0.81391134  1
  Te  Te0_4  1  0.66666650  0.33333350  0.31391134  1
  Te  Te0_5  1  0.66666650  0.33333350  0.81391134  1
  Te  Te0_6  1  0.66666650  0.83333350  0.31391134  1
  Te  Te0_7  1  0.66666650  0.83333350  0.81391134  1
  Te  Te1_0  1  0.33333350  0.16666650  0.06391134  1
  Te  Te1_1  1  0.33333350  0.16666650  0.56391134  1
  Te  Te1_2  1  0.33333350  0.66666650  0.06391134  1
  Te  Te1_3  1  0.33333350  0.66666650  0.56391134  1
  Te  Te1_4  1  0.83333350  0.16666650  0.06391134  1
  Te  Te1_5  1  0.83333350  0.16666650  0.56391134  1
  Te  Te1_6  1  0.83333350  0.66666650  0.06391134  1
  Te  Te1_7  1  0.83333350  0.66666650  0.56391134  1
  Te  Te2_0  1  0.33333350  0.16666650  0.18608865  1
  Te  Te2_1  1  0.33333350  0.16666650  0.68608865  1
  Te  Te2_2  1  0.33333350  0.66666650  0.18608865  1
  Te  Te2_3  1  0.33333350  0.66666650  0.68608865  1
  Te  Te2_4  1  0.83333350  0.16666650  0.18608865  1
  Te  Te2_5  1  0.83333350  0.16666650  0.68608865  1
  Te  Te2_6  1  0.83333350  0.66666650  0.18608865  1
  Te  Te2_7  1  0.83333350  0.66666650  0.68608865  1
  Te  Te3_0  1  0.16666650  0.33333350  0.43608865  1
  Te  Te3_1  1  0.16666650  0.33333350  0.93608865  1
  Te  Te3_2  1  0.16666650  0.83333350  0.43608865  1
  Te  Te3_3  1  0.16666650  0.83333350  0.93608865  1
  Te  Te3_4  1  0.66666650  0.33333350  0.43608865  1
  Te  Te3_5  1  0.66666650  0.33333350  0.93608865  1
  Te  Te3_6  1  0.66666650  0.83333350  0.43608865  1
  Te  Te3_7  1  0.66666650  0.83333350  0.93608865  1
  Mo  Mo0_0  1  0.16666650  0.33333350  0.12500000  1
  Mo  Mo0_1  1  0.16666650  0.33333350  0.62500000  1
  Mo  Mo0_2  1  0.16666650  0.83333350  0.12500000  1
  Mo  Mo0_3  1  0.16666650  0.83333350  0.62500000  1
  Mo  Mo0_4  1  0.66666650  0.33333350  0.12500000  1
  Mo  Mo0_5  1  0.66666650  0.33333350  0.62500000  1
  Mo  Mo0_6  1  0.66666650  0.83333350  0.12500000  1
  Mo  Mo0_7  1  0.66666650  0.83333350  0.62500000  1
  Mo  Mo1_0  1  0.33333350  0.16666650  0.37500000  1
  Mo  Mo1_1  1  0.33333350  0.16666650  0.87500000  1
  Mo  Mo1_2  1  0.33333350  0.66666650  0.37500000  1
  Mo  Mo1_3  1  0.33333350  0.66666650  0.87500000  1
  Mo  Mo1_4  1  0.83333350  0.16666650  0.37500000  1
  Mo  Mo1_5  1  0.83333350  0.16666650  0.87500000  1
  Mo  Mo1_6  1  0.83333350  0.66666650  0.37500000  1
  Mo  Mo1_7  1  0.83333350  0.66666650  0.87500000  1
loop_
_geom_bond_atom_site_label_1
_geom_bond_atom_site_label_2
_geom_bond_distance
_geom_bond_site_symmetry_2
Te0_0 Te0_2 3.565654 1_545
Te0_0 Te0_2 3.565654 1_555
Te0_0 Te0_6 3.565655 1_555
Te0_0 Te0_6 3.565655 1_445
Te0_0 Te0_4 3.565655 1_455
Te0_0 Te0_4 3.565655 1_555
Te0_1 Te0_3 3.565654 1_545
Te0_1 Te0_3 3.565654 1_555
Te0_1 Te0_7 3.565655 1_555
Te0_1 Te0_7 3.565655 1_445
Te0_1 Te0_5 3.565655 1_455
Te0_1 Te0_5 3.565655 1_555
Te0_2 Te0_4 3.565655 1_565
Te0_2 Te0_4 3.565655 1_455
Te0_2 Te0_6 3.565655 1_455
Te0_2 Te0_6 3.565655 1_555
Te0_3 Te0_5 3.565655 1_565
Te0_3 Te0_5 3.565655 1_455
Te0_3 Te0_7 3.565655 1_455
Te0_3 Te0_7 3.565655 1_555
Te0_4 Te0_6 3.565654 1_555
Te0_4 Te0_6 3.565654 1_545
Te0_5 Te0_7 3.565654 1_555
Te0_5 Te0_7 3.565654 1_545
Te1_0 Te1_2 3.565654 1_555
Te1_0 Te1_2 3.565654 1_545
Te1_0 Te1_6 3.565655 1_555
Te1_0 Te1_6 3.565655 1_445
Te1_0 Te1_4 3.565655 1_555
Te1_0 Te1_4 3.565655 1_455
Te1_1 Te1_3 3.565654 1_555
Te1_1 Te1_3 3.565654 1_545
Te1_1 Te1_7 3.565655 1_555
Te1_1 Te1_7 3.565655 1_445
Te1_1 Te1_5 3.565655 1_555
Te1_1 Te1_5 3.565655 1_455
Te1_2 Te1_4 3.565655 1_455
Te1_2 Te1_4 3.565655 1_565
Te1_2 Te1_6 3.565655 1_455
Te1_2 Te1_6 3.565655 1_555
Te1_3 Te1_5 3.565655 1_455
Te1_3 Te1_5 3.565655 1_565
Te1_3 Te1_7 3.565655 1_455
Te1_3 Te1_7 3.565655 1_555
Te1_4 Te1_6 3.565654 1_555
Te1_4 Te1_6 3.565654 1_545
Te1_5 Te1_7 3.565654 1_555
Te1_5 Te1_7 3.565654 1_545
Te2_0 Te2_2 3.565654 1_555
Te2_0 Te2_2 3.565654 1_545
Te2_0 Te2_6 3.565655 1_555
Te2_0 Te2_6 3.565655 1_445
Te2_0 Te2_4 3.565655 1_555
Te2_0 Te2_4 3.565655 1_455
Te2_1 Te2_3 3.565654 1_545
Te2_1 Te2_3 3.565654 1_555
Te2_1 Te2_7 3.565655 1_555
Te2_1 Te2_7 3.565655 1_445
Te2_1 Te2_5 3.565655 1_555
Te2_1 Te2_5 3.565655 1_455
Te2_2 Te2_4 3.565655 1_455
Te2_2 Te2_4 3.565655 1_565
Te2_2 Te2_6 3.565655 1_455
Te2_2 Te2_6 3.565655 1_555
Te2_3 Te2_5 3.565655 1_455
Te2_3 Te2_5 3.565655 1_565
Te2_3 Te2_7 3.565655 1_455
Te2_3 Te2_7 3.565655 1_555
Te2_4 Te2_6 3.565654 1_555
Te2_4 Te2_6 3.565654 1_545
Te2_5 Te2_7 3.565654 1_555
Te2_5 Te2_7 3.565654 1_545
Te3_0 Te3_2 3.565654 1_545
Te3_0 Te3_2 3.565654 1_555
Te3_0 Te3_6 3.565655 1_555
Te3_0 Te3_6 3.565655 1_445
Te3_0 Te3_4 3.565655 1_555
Te3_0 Te3_4 3.565655 1_455
Te3_1 Te3_3 3.565654 1_545
Te3_1 Te3_3 3.565654 1_555
Te3_1 Te3_7 3.565655 1_555
Te3_1 Te3_7 3.565655 1_445
Te3_1 Te3_5 3.565655 1_555
Te3_1 Te3_5 3.565655 1_455
Te3_2 Te3_4 3.565655 1_455
Te3_2 Te3_4 3.565655 1_565
Te3_2 Te3_6 3.565655 1_455
Te3_2 Te3_6 3.565655 1_555
Te3_3 Te3_5 3.565655 1_455
Te3_3 Te3_5 3.565655 1_565
Te3_3 Te3_7 3.565655 1_455
Te3_3 Te3_7 3.565655 1_555
Te3_4 Te3_6 3.565654 1_545
Te3_4 Te3_6 3.565654 1_555
Te3_5 Te3_7 3.565654 1_545
Te3_5 Te3_7 3.565654 1_555
Mo0_0 Te1_2 2.727768 1_555
Mo0_0 Te2_2 2.727768 1_555
Mo0_0 Te1_4 2.727768 1_455
Mo0_0 Te2_4 2.727768 1_455
Mo0_0 Te2_0 2.727773 1_555
Mo0_0 Te1_0 2.727773 1_555
Mo0_1 Te2_3 2.727768 1_555
Mo0_1 Te1_3 2.727768 1_555
Mo0_1 Te2_5 2.727768 1_455
Mo0_1 Te1_5 2.727768 1_455
Mo0_1 Te2_1 2.727773 1_555
Mo0_1 Te1_1 2.727773 1_555
Mo0_2 Te2_0 2.727768 1_565
Mo0_2 Te1_0 2.727768 1_565
Mo0_2 Te1_6 2.727768 1_455
Mo0_2 Te2_6 2.727768 1_455
Mo0_2 Te2_2 2.727773 1_555
Mo0_2 Te1_2 2.727773 1_555
Mo0_3 Te2_1 2.727768 1_565
Mo0_3 Te1_1 2.727768 1_565
Mo0_3 Te2_7 2.727768 1_455
Mo0_3 Te1_7 2.727768 1_455
Mo0_3 Te2_3 2.727773 1_555
Mo0_3 Te1_3 2.727773 1_555
Mo0_4 Te2_6 2.727768 1_555
Mo0_4 Te1_6 2.727768 1_555
Mo0_4 Te2_0 2.727768 1_555
Mo0_4 Te1_0 2.727768 1_555
Mo0_4 Te2_4 2.727773 1_555
Mo0_4 Te1_4 2.727773 1_555
Mo0_5 Te2_7 2.727768 1_555
Mo0_5 Te1_7 2.727768 1_555
Mo0_5 Te2_1 2.727768 1_555
Mo0_5 Te1_1 2.727768 1_555
Mo0_5 Te2_5 2.727773 1_555
Mo0_5 Te1_5 2.727773 1_555
Mo0_6 Te2_4 2.727768 1_565
Mo0_6 Te1_4 2.727768 1_565
Mo0_6 Te2_2 2.727768 1_555
Mo0_6 Te1_2 2.727768 1_555
Mo0_6 Te2_6 2.727773 1_555
Mo0_6 Te1_6 2.727773 1_555
Mo0_7 Te2_5 2.727768 1_565
Mo0_7 Te1_5 2.727768 1_565
Mo0_7 Te2_3 2.727768 1_555
Mo0_7 Te1_3 2.727768 1_555
Mo0_7 Te2_7 2.727773 1_555
Mo0_7 Te1_7 2.727773 1_555
Mo1_0 Te0_2 2.727768 1_545
Mo1_0 Te3_2 2.727768 1_545
Mo1_0 Te0_4 2.727768 1_555
Mo1_0 Te3_4 2.727768 1_555
Mo1_0 Te0_0 2.727773 1_555
Mo1_0 Te3_0 2.727773 1_555
Mo1_1 Te0_3 2.727768 1_545
Mo1_1 Te3_3 2.727768 1_545
Mo1_1 Te0_5 2.727768 1_555
Mo1_1 Te3_5 2.727768 1_555
Mo1_1 Te0_1 2.727773 1_555
Mo1_1 Te3_1 2.727773 1_555
Mo1_2 Te0_0 2.727768 1_555
Mo1_2 Te3_0 2.727768 1_555
Mo1_2 Te0_6 2.727768 1_555
Mo1_2 Te3_6 2.727768 1_555
Mo1_2 Te0_2 2.727773 1_555
Mo1_2 Te3_2 2.727773 1_555
Mo1_3 Te0_1 2.727768 1_555
Mo1_3 Te3_1 2.727768 1_555
Mo1_3 Te0_7 2.727768 1_555
Mo1_3 Te3_7 2.727768 1_555
Mo1_3 Te0_3 2.727773 1_555
Mo1_3 Te3_3 2.727773 1_555
Mo1_4 Te0_6 2.727768 1_545
Mo1_4 Te3_6 2.727768 1_545
Mo1_4 Te0_0 2.727768 1_655
Mo1_4 Te3_0 2.727768 1_655
Mo1_4 Te0_4 2.727773 1_555
Mo1_4 Te3_4 2.727773 1_555
Mo1_5 Te0_7 2.727768 1_545
Mo1_5 Te3_7 2.727768 1_545
Mo1_5 Te0_1 2.727768 1_655
Mo1_5 Te3_1 2.727768 1_655
Mo1_5 Te0_5 2.727773 1_555
Mo1_5 Te3_5 2.727773 1_555
Mo1_6 Te0_4 2.727768 1_555
Mo1_6 Te3_4 2.727768 1_555
Mo1_6 Te0_2 2.727768 1_655
Mo1_6 Te3_2 2.727768 1_655
Mo1_6 Te0_6 2.727773 1_555
Mo1_6 Te3_6 2.727773 1_555
Mo1_7 Te0_5 2.727768 1_555
Mo1_7 Te3_5 2.727768 1_555
Mo1_7 Te0_3 2.727768 1_655
Mo1_7 Te3_3 2.727768 1_655
Mo1_7 Te0_7 2.727773 1_555
Mo1_7 Te3_7 2.727773 1_555
