# generated using pymatgen
data_Ti8Cu3S16
_symmetry_space_group_name_H-M   'P 1'
_cell_length_a   8.98950625
_cell_length_b   8.98950625
_cell_length_c   5.89882137
_cell_angle_alpha   89.98673478
_cell_angle_beta   89.98673478
_cell_angle_gamma   98.63180286
_symmetry_Int_Tables_number   1
_chemical_formula_structural   Ti8Cu3S16
_chemical_formula_sum   'Ti8 Cu3 S16'
_cell_volume   471.29156730
_cell_formula_units_Z   1
loop_
 _symmetry_equiv_pos_site_id
 _symmetry_equiv_pos_as_xyz
  1  'x, y, z'
loop_
 _atom_site_type_symbol
 _atom_site_label
 _atom_site_symmetry_multiplicity
 _atom_site_fract_x
 _atom_site_fract_y
 _atom_site_fract_z
 _atom_site_occupancy
  Ti  Ti0  1  0.25247500  0.25247500  0.99335600  1
  Ti  Ti1  1  0.37139100  0.12027900  0.50008100  1
  Ti  Ti2  1  0.50000000  0.00000000  0.00000000  1
  Ti  Ti3  1  0.62860900  0.87972100  0.49991900  1
  Ti  Ti4  1  0.74752500  0.74752500  0.00664400  1
  Ti  Ti5  1  0.87972100  0.62860900  0.49991900  1
  Ti  Ti6  1  0.00000000  0.50000000  0.00000000  1
  Ti  Ti7  1  0.12027900  0.37139100  0.50008100  1
  Cu  Cu0  1  0.37093000  0.62907000  0.50000000  1
  Cu  Cu1  1  0.62907000  0.37093000  0.50000000  1
  Cu  Cu2  1  0.00000000  0.00000000  0.00000000  1
  S  S0  1  0.25198600  0.00151600  0.16505800  1
  S  S1  1  0.37684700  0.87615900  0.66798500  1
  S  S2  1  0.50124100  0.75246500  0.16741000  1
  S  S3  1  0.37328600  0.37328600  0.33128800  1
  S  S4  1  0.62671400  0.62671400  0.66871200  1
  S  S5  1  0.49875900  0.24753500  0.83259000  1
  S  S6  1  0.75246500  0.50124100  0.16741000  1
  S  S7  1  0.62315300  0.12384100  0.33201500  1
  S  S8  1  0.87615900  0.37684700  0.66798500  1
  S  S9  1  0.00151600  0.25198600  0.16505800  1
  S  S10  1  0.74801400  0.99848400  0.83494200  1
  S  S11  1  0.87554900  0.87554900  0.33634200  1
  S  S12  1  0.12445100  0.12445100  0.66365800  1
  S  S13  1  0.99848400  0.74801400  0.83494200  1
  S  S14  1  0.12384100  0.62315300  0.33201500  1
  S  S15  1  0.24753500  0.49875900  0.83259000  1
loop_
_geom_bond_atom_site_label_1
_geom_bond_atom_site_label_2
_geom_bond_distance
_geom_bond_site_symmetry_2
Cu0 S1 2.425713 1_555
Cu0 S14 2.425713 1_555
Cu0 S2 2.461626 1_555
Cu0 S15 2.461626 1_555
Cu0 S4 2.508716 1_555
Cu0 S3 2.508716 1_555
Cu1 S8 2.425713 1_555
Cu1 S7 2.425713 1_555
Cu1 S6 2.461626 1_555
Cu1 S5 2.461626 1_555
Cu1 S4 2.508716 1_555
Cu1 S3 2.508716 1_555
Cu2 S12 2.462074 1_554
Cu2 S11 2.462074 1_445
Cu2 S0 2.463981 1_555
Cu2 S9 2.463981 1_555
Cu2 S10 2.463981 1_444
Cu2 S13 2.463981 1_444
S0 Ti1 2.419811 1_555
S0 Ti2 2.434558 1_555
S0 Ti0 2.472115 1_554
S1 Ti1 2.414664 1_565
S1 Ti2 2.435729 1_566
S1 Ti3 2.466419 1_555
S2 Ti4 2.414856 1_555
S2 Ti2 2.435848 1_565
S2 Ti3 2.464890 1_555
S3 Ti0 2.445514 1_554
S3 Ti7 2.480305 1_555
S3 Ti1 2.480305 1_555
S4 Ti4 2.445514 1_556
S4 Ti3 2.480305 1_555
S4 Ti5 2.480305 1_555
S5 Ti0 2.414856 1_555
S5 Ti2 2.435848 1_556
S5 Ti1 2.464890 1_555
S6 Ti4 2.414856 1_555
S6 Ti6 2.435848 1_655
S6 Ti5 2.464890 1_555
S7 Ti3 2.414664 1_545
S7 Ti2 2.435729 1_555
S7 Ti1 2.466419 1_555
S8 Ti7 2.414664 1_655
S8 Ti6 2.435729 1_656
S8 Ti5 2.466419 1_555
S9 Ti7 2.419811 1_555
S9 Ti6 2.434558 1_555
S9 Ti0 2.472115 1_554
S10 Ti3 2.419811 1_555
S10 Ti2 2.434558 1_566
S10 Ti4 2.472115 1_556
S11 Ti5 2.425756 1_555
S11 Ti3 2.425756 1_555
S11 Ti4 2.456802 1_555
S12 Ti1 2.425756 1_555
S12 Ti7 2.425756 1_555
S12 Ti0 2.456802 1_555
S13 Ti5 2.419811 1_555
S13 Ti6 2.434558 1_656
S13 Ti4 2.472115 1_556
S14 Ti5 2.414664 1_455
S14 Ti6 2.435729 1_555
S14 Ti7 2.466419 1_555
S15 Ti0 2.414856 1_555
S15 Ti6 2.435848 1_556
S15 Ti7 2.464890 1_555
