# generated using pymatgen
data_Nd12Si5Se28
_symmetry_space_group_name_H-M   'P 1'
_cell_length_a   10.61511726
_cell_length_b   10.61511726
_cell_length_c   24.38082300
_cell_angle_alpha   90.00000000
_cell_angle_beta   90.00000000
_cell_angle_gamma   119.99999540
_symmetry_Int_Tables_number   1
_chemical_formula_structural   Nd12Si5Se28
_chemical_formula_sum   'Nd24 Si10 Se56'
_cell_volume   2379.18714976
_cell_formula_units_Z   2
loop_
 _symmetry_equiv_pos_site_id
 _symmetry_equiv_pos_as_xyz
  1  'x, y, z'
loop_
 _atom_site_type_symbol
 _atom_site_label
 _atom_site_symmetry_multiplicity
 _atom_site_fract_x
 _atom_site_fract_y
 _atom_site_fract_z
 _atom_site_occupancy
  Nd  Nd0  1  0.79233400  0.10775900  0.42869600  1
  Nd  Nd1  1  0.79897100  0.11555900  0.18902300  1
  Nd  Nd2  1  0.79246200  0.09609300  0.67183000  1
  Nd  Nd3  1  0.79893200  0.10598500  0.92733500  1
  Nd  Nd4  1  0.88444100  0.68341200  0.18902300  1
  Nd  Nd5  1  0.89224100  0.68457500  0.42869600  1
  Nd  Nd6  1  0.90390700  0.69636900  0.67183000  1
  Nd  Nd7  1  0.89401500  0.69294700  0.92733500  1
  Nd  Nd8  1  0.31658800  0.20102900  0.18902300  1
  Nd  Nd9  1  0.31542500  0.20766600  0.42869600  1
  Nd  Nd10  1  0.30363100  0.20753800  0.67183000  1
  Nd  Nd11  1  0.30705300  0.20106800  0.92733500  1
  Nd  Nd12  1  0.03501100  0.47122100  0.06129600  1
  Nd  Nd13  1  0.01945800  0.46366800  0.30791200  1
  Nd  Nd14  1  0.01092200  0.45320600  0.54496300  1
  Nd  Nd15  1  0.02735500  0.46504300  0.80346000  1
  Nd  Nd16  1  0.43621000  0.96498900  0.06129600  1
  Nd  Nd17  1  0.44421000  0.98054200  0.30791200  1
  Nd  Nd18  1  0.44228300  0.98907800  0.54496300  1
  Nd  Nd19  1  0.43768800  0.97264500  0.80346000  1
  Nd  Nd20  1  0.52877900  0.56379000  0.06129600  1
  Nd  Nd21  1  0.53633200  0.55579000  0.30791200  1
  Nd  Nd22  1  0.54679400  0.55771700  0.54496300  1
  Nd  Nd23  1  0.53495700  0.56231200  0.80346000  1
  Si  Si0  1  0.00000000  0.00000000  0.07625800  1
  Si  Si1  1  0.00000000  0.00000000  0.32717100  1
  Si  Si2  1  0.00000000  0.00000000  0.57283200  1
  Si  Si3  1  0.00000000  0.00000000  0.82178900  1
  Si  Si4  1  0.33333300  0.66666700  0.20531100  1
  Si  Si5  1  0.33333300  0.66666700  0.45019300  1
  Si  Si6  1  0.33333300  0.66666700  0.69806200  1
  Si  Si7  1  0.33333300  0.66666700  0.95277400  1
  Si  Si8  1  0.66666700  0.33333300  0.73430000  1
  Si  Si9  1  0.66666700  0.33333300  0.98598800  1
  Se  Se0  1  0.75339100  0.19401700  0.03764800  1
  Se  Se1  1  0.76116100  0.17220800  0.30086400  1
  Se  Se2  1  0.75348000  0.18505800  0.79282900  1
  Se  Se3  1  0.75583300  0.16330600  0.55210600  1
  Se  Se4  1  0.77211600  0.85512300  0.36432500  1
  Se  Se5  1  0.77161700  0.85955800  0.11255400  1
  Se  Se6  1  0.77123700  0.84823000  0.61112100  1
  Se  Se7  1  0.77211800  0.85467600  0.85987700  1
  Se  Se8  1  0.08794100  0.22838300  0.11255400  1
  Se  Se9  1  0.08300700  0.22788400  0.36432500  1
  Se  Se10  1  0.08255800  0.22788200  0.85987700  1
  Se  Se11  1  0.07699300  0.22876300  0.61112100  1
  Se  Se12  1  0.00000000  0.00000000  0.23364500  1
  Se  Se13  1  0.00000000  0.00000000  0.48111100  1
  Se  Se14  1  0.00000000  0.00000000  0.72988300  1
  Se  Se15  1  0.00000000  0.00000000  0.98204200  1
  Se  Se16  1  0.80598300  0.55937400  0.03764800  1
  Se  Se17  1  0.82779200  0.58895300  0.30086400  1
  Se  Se18  1  0.83669400  0.59252700  0.55210600  1
  Se  Se19  1  0.81494200  0.56842100  0.79282900  1
  Se  Se20  1  0.14487700  0.91699300  0.36432500  1
  Se  Se21  1  0.14044200  0.91205900  0.11255400  1
  Se  Se22  1  0.14532400  0.91744200  0.85987700  1
  Se  Se23  1  0.15177000  0.92300700  0.61112100  1
  Se  Se24  1  0.92468900  0.43120600  0.17145500  1
  Se  Se25  1  0.92224600  0.42443400  0.42583600  1
  Se  Se26  1  0.89827600  0.41313000  0.68344900  1
  Se  Se27  1  0.91069900  0.42230700  0.92545800  1
  Se  Se28  1  0.44062600  0.24660900  0.03764800  1
  Se  Se29  1  0.41104700  0.23883900  0.30086400  1
  Se  Se30  1  0.40747300  0.24416700  0.55210600  1
  Se  Se31  1  0.43157900  0.24652000  0.79282900  1
  Se  Se32  1  0.18948700  0.75211600  0.24037900  1
  Se  Se33  1  0.18735300  0.74834000  0.48781800  1
  Se  Se34  1  0.18814400  0.74904500  0.73711100  1
  Se  Se35  1  0.18740100  0.75030300  0.98866000  1
  Se  Se36  1  0.50651700  0.07531100  0.17145500  1
  Se  Se37  1  0.50218800  0.07775400  0.42583600  1
  Se  Se38  1  0.51485400  0.10172400  0.68344900  1
  Se  Se39  1  0.51160800  0.08930100  0.92545800  1
  Se  Se40  1  0.33333300  0.66666700  0.11080600  1
  Se  Se41  1  0.33333300  0.66666700  0.35772400  1
  Se  Se42  1  0.33333300  0.66666700  0.85943900  1
  Se  Se43  1  0.33333300  0.66666700  0.60670400  1
  Se  Se44  1  0.25166000  0.43901300  0.48781800  1
  Se  Se45  1  0.25095500  0.43909800  0.73711100  1
  Se  Se46  1  0.24788400  0.43737100  0.24037900  1
  Se  Se47  1  0.24969700  0.43709800  0.98866000  1
  Se  Se48  1  0.56262900  0.81051300  0.24037900  1
  Se  Se49  1  0.56098700  0.81264700  0.48781800  1
  Se  Se50  1  0.56090200  0.81185600  0.73711100  1
  Se  Se51  1  0.56290200  0.81259900  0.98866000  1
  Se  Se52  1  0.56879400  0.49348300  0.17145500  1
  Se  Se53  1  0.57769300  0.48839200  0.92545800  1
  Se  Se54  1  0.57556600  0.49781200  0.42583600  1
  Se  Se55  1  0.58687000  0.48514600  0.68344900  1
loop_
_geom_bond_atom_site_label_1
_geom_bond_atom_site_label_2
_geom_bond_distance
_geom_bond_site_symmetry_2
Nd0 Se25 2.927607 1_555
Nd0 Se37 2.934505 1_555
Nd0 Se4 3.020832 1_545
Nd0 Se9 3.110475 1_655
Nd0 Se3 3.127198 1_555
Nd0 Se49 3.198280 1_545
Nd0 Se13 3.212859 1_655
Nd0 Se1 3.243058 1_555
Nd1 Se1 2.863450 1_555
Nd1 Se36 2.945704 1_555
Nd1 Se24 2.952905 1_555
Nd1 Se12 3.140012 1_655
Nd1 Se5 3.186825 1_545
Nd1 Se48 3.197401 1_545
Nd1 Se8 3.262789 1_655
Nd1 Se0 3.866724 1_555
Nd2 Se6 2.927699 1_545
Nd2 Se26 2.981210 1_555
Nd2 Se38 2.990625 1_555
Nd2 Se11 3.007153 1_655
Nd2 Se3 3.075390 1_555
Nd2 Se14 3.185020 1_655
Nd2 Se2 3.186954 1_555
Nd2 Se50 3.203481 1_545
Nd3 Se27 2.949698 1_555
Nd3 Se0 2.965165 1_556
Nd3 Se39 2.965749 1_555
Nd3 Se7 3.023768 1_545
Nd3 Se10 3.089986 1_655
Nd3 Se15 3.162513 1_655
Nd3 Se51 3.226310 1_545
Nd3 Se2 3.478010 1_555
Nd4 Se17 2.863450 1_555
Nd4 Se24 2.945704 1_555
Nd4 Se52 2.952905 1_555
Nd4 Se12 3.140012 1_665
Nd4 Se21 3.186825 1_655
Nd4 Se32 3.197401 1_655
Nd4 Se5 3.262789 1_555
Nd4 Se16 3.866724 1_555
Nd5 Se54 2.927607 1_555
Nd5 Se25 2.934505 1_555
Nd5 Se20 3.020832 1_655
Nd5 Se4 3.110475 1_555
Nd5 Se18 3.127198 1_555
Nd5 Se33 3.198280 1_655
Nd5 Se13 3.212859 1_665
Nd5 Se17 3.243058 1_555
Nd6 Se23 2.927699 1_655
Nd6 Se55 2.981210 1_555
Nd6 Se26 2.990625 1_555
Nd6 Se6 3.007153 1_555
Nd6 Se18 3.075390 1_555
Nd6 Se14 3.185020 1_665
Nd6 Se19 3.186957 1_555
Nd6 Se34 3.203484 1_655
Nd7 Se53 2.949698 1_555
Nd7 Se16 2.965165 1_556
Nd7 Se27 2.965749 1_555
Nd7 Se22 3.023768 1_655
Nd7 Se7 3.089986 1_555
Nd7 Se15 3.162513 1_665
Nd7 Se35 3.226310 1_655
Nd7 Se19 3.478012 1_555
Nd8 Se29 2.863450 1_555
Nd8 Se52 2.945704 1_555
Nd8 Se36 2.952905 1_555
Nd8 Se12 3.140013 1_555
Nd8 Se8 3.186825 1_555
Nd8 Se46 3.197401 1_555
Nd8 Se21 3.262790 1_545
Nd8 Se28 3.866724 1_555
Nd9 Se37 2.927607 1_555
Nd9 Se54 2.934506 1_555
Nd9 Se9 3.020832 1_555
Nd9 Se20 3.110475 1_545
Nd9 Se30 3.127198 1_555
Nd9 Se44 3.198280 1_555
Nd9 Se13 3.212859 1_555
Nd9 Se29 3.243058 1_555
Nd10 Se11 2.927699 1_555
Nd10 Se38 2.981209 1_555
Nd10 Se55 2.990625 1_555
Nd10 Se23 3.007153 1_545
Nd10 Se30 3.075390 1_555
Nd10 Se14 3.185020 1_555
Nd10 Se31 3.186958 1_555
Nd10 Se45 3.203475 1_555
Nd11 Se39 2.949698 1_555
Nd11 Se28 2.965165 1_556
Nd11 Se53 2.965749 1_555
Nd11 Se10 3.023768 1_555
Nd11 Se22 3.089986 1_545
Nd11 Se15 3.162514 1_555
Nd11 Se47 3.226310 1_555
Nd11 Se31 3.478013 1_555
Nd12 Se24 2.875372 1_455
Nd12 Se0 3.021783 1_455
Nd12 Se40 3.036375 1_555
Nd12 Se47 3.047345 1_554
Nd12 Se16 3.064891 1_455
Nd12 Se35 3.120422 1_554
Nd12 Se8 3.157628 1_555
Nd12 Se27 3.506286 1_454
Nd13 Se1 2.938779 1_455
Nd13 Se17 2.939968 1_455
Nd13 Se25 3.012415 1_455
Nd13 Se46 3.057006 1_555
Nd13 Se32 3.133289 1_555
Nd13 Se41 3.168556 1_555
Nd13 Se9 3.209290 1_555
Nd13 Se24 3.442758 1_455
Nd14 Se18 2.893637 1_455
Nd14 Se3 2.915416 1_455
Nd14 Se44 2.979801 1_555
Nd14 Se25 3.021170 1_455
Nd14 Se33 3.065325 1_555
Nd14 Se11 3.231228 1_555
Nd14 Se43 3.370220 1_555
Nd14 Se26 3.535845 1_455
Nd15 Se2 2.951584 1_455
Nd15 Se19 2.971500 1_455
Nd15 Se45 2.996666 1_555
Nd15 Se34 3.077811 1_555
Nd15 Se26 3.160271 1_455
Nd15 Se27 3.166163 1_455
Nd15 Se42 3.168807 1_555
Nd15 Se10 3.169912 1_555
Nd16 Se36 2.875372 1_565
Nd16 Se28 3.021783 1_565
Nd16 Se40 3.036374 1_555
Nd16 Se35 3.047345 1_554
Nd16 Se0 3.064891 1_565
Nd16 Se51 3.120422 1_554
Nd16 Se21 3.157628 1_555
Nd16 Se39 3.506286 1_564
Nd17 Se29 2.938779 1_565
Nd17 Se1 2.939968 1_565
Nd17 Se37 3.012415 1_565
Nd17 Se32 3.057006 1_555
Nd17 Se48 3.133288 1_555
Nd17 Se41 3.168554 1_555
Nd17 Se20 3.209290 1_555
Nd17 Se36 3.442758 1_565
Nd18 Se3 2.893646 1_565
Nd18 Se30 2.915409 1_565
Nd18 Se33 2.979796 1_555
Nd18 Se37 3.021171 1_565
Nd18 Se49 3.065332 1_555
Nd18 Se23 3.231219 1_555
Nd18 Se43 3.370220 1_555
Nd18 Se38 3.535846 1_565
Nd19 Se31 2.951578 1_565
Nd19 Se2 2.971508 1_565
Nd19 Se34 2.996661 1_555
Nd19 Se50 3.077819 1_555
Nd19 Se38 3.160271 1_565
Nd19 Se39 3.166163 1_565
Nd19 Se42 3.168806 1_555
Nd19 Se22 3.169912 1_555
Nd20 Se52 2.875372 1_555
Nd20 Se16 3.021783 1_555
Nd20 Se40 3.036383 1_555
Nd20 Se51 3.047345 1_554
Nd20 Se28 3.064891 1_555
Nd20 Se47 3.120422 1_554
Nd20 Se5 3.157628 1_555
Nd20 Se53 3.506286 1_554
Nd21 Se17 2.938779 1_555
Nd21 Se29 2.939968 1_555
Nd21 Se54 3.012415 1_555
Nd21 Se48 3.057006 1_555
Nd21 Se46 3.133288 1_555
Nd21 Se41 3.168563 1_555
Nd21 Se4 3.209290 1_555
Nd21 Se52 3.442758 1_555
Nd22 Se30 2.893647 1_555
Nd22 Se18 2.915420 1_555
Nd22 Se49 2.979792 1_555
Nd22 Se54 3.021173 1_555
Nd22 Se44 3.065323 1_555
Nd22 Se6 3.231222 1_555
Nd22 Se43 3.370220 1_555
Nd22 Se55 3.535848 1_555
Nd23 Se19 2.951589 1_555
Nd23 Se31 2.971510 1_555
Nd23 Se50 2.996657 1_555
Nd23 Se45 3.077811 1_555
Nd23 Se55 3.160271 1_555
Nd23 Se53 3.166163 1_555
Nd23 Se42 3.168814 1_555
Nd23 Se7 3.169912 1_555
Se0 Si9 2.445870 1_554
Se1 Se9 3.520809 1_655
Se1 Se48 3.642231 1_545
Se1 Se4 3.758738 1_545
Se2 Si8 2.610228 1_555
Se3 Se49 3.590433 1_545
Se3 Se6 3.718872 1_545
Se4 Si1 2.305887 1_665
Se4 Se54 3.615896 1_555
Se5 Si0 2.295367 1_665
Se5 Se52 3.664928 1_555
Se6 Si2 2.334870 1_665
Se7 Si3 2.315590 1_665
Se8 Si0 2.295367 1_555
Se9 Si1 2.305887 1_555
Se10 Si3 2.315590 1_555
Se10 Se27 3.729498 1_455
Se11 Si2 2.334870 1_555
Se11 Se3 3.436067 1_455
Se11 Se30 3.718872 1_555
Se12 Si1 2.280241 1_555
Se13 Si2 2.236233 1_555
Se14 Si3 2.240744 1_555
Se15 Si0 2.297064 1_556
Se16 Si9 2.445877 1_554
Se17 Se4 3.520808 1_555
Se17 Se32 3.642231 1_655
Se17 Se20 3.758738 1_655
Se18 Se6 3.436067 1_555
Se18 Se33 3.590433 1_655
Se18 Se23 3.718872 1_655
Se19 Si8 2.610228 1_555
Se20 Si1 2.305887 1_565
Se20 Se29 3.520809 1_565
Se20 Se37 3.615896 1_565
Se21 Si0 2.295367 1_565
Se21 Se36 3.664928 1_565
Se22 Si3 2.315590 1_565
Se22 Se39 3.729498 1_565
Se23 Si2 2.334870 1_565
Se23 Se30 3.436067 1_565
Se24 Se32 3.571246 1_655
Se24 Se8 3.664928 1_655
Se24 Se46 3.791260 1_655
Se25 Se33 3.514126 1_655
Se25 Se9 3.615896 1_655
Se25 Se44 3.740832 1_655
Se26 Si8 2.493301 1_555
Se27 Si9 2.708073 1_555
Se27 Se35 3.591306 1_655
Se28 Si9 2.445878 1_554
Se29 Se46 3.642231 1_555
Se29 Se9 3.758738 1_555
Se30 Se44 3.590433 1_555
Se31 Si8 2.610228 1_555
Se32 Si4 2.295716 1_555
Se32 Se36 3.791261 1_565
Se33 Si5 2.310372 1_555
Se33 Se37 3.740833 1_565
Se34 Si6 2.322511 1_555
Se35 Si7 2.308388 1_555
Se36 Se48 3.571246 1_545
Se37 Se49 3.514126 1_545
Se38 Si8 2.493302 1_555
Se39 Si9 2.708075 1_555
Se39 Se51 3.591306 1_545
Se40 Si4 2.304110 1_555
Se41 Si5 2.254470 1_555
Se42 Si7 2.275584 1_555
Se43 Si6 2.227383 1_555
Se44 Si5 2.310381 1_555
Se44 Se54 3.514126 1_555
Se45 Si6 2.322529 1_555
Se46 Si4 2.295725 1_555
Se46 Se52 3.571246 1_555
Se47 Si7 2.308397 1_555
Se47 Se53 3.591306 1_555
Se48 Si4 2.295724 1_555
Se48 Se52 3.791260 1_555
Se49 Si5 2.310380 1_555
Se49 Se54 3.740832 1_555
Se50 Si6 2.322526 1_555
Se51 Si7 2.308396 1_555
Se53 Si9 2.708082 1_555
Se53 Se7 3.729498 1_555
Se55 Si8 2.493309 1_555
