# generated using pymatgen
data_NaZr2CuF11
_symmetry_space_group_name_H-M   'P 1'
_cell_length_a   5.61602300
_cell_length_b   5.85751702
_cell_length_c   7.78216881
_cell_angle_alpha   110.48957988
_cell_angle_beta   96.72258539
_cell_angle_gamma   106.29340614
_symmetry_Int_Tables_number   1
_chemical_formula_structural   NaZr2CuF11
_chemical_formula_sum   'Na1 Zr2 Cu1 F11'
_cell_volume   223.48044071
_cell_formula_units_Z   1
loop_
 _symmetry_equiv_pos_site_id
 _symmetry_equiv_pos_as_xyz
  1  'x, y, z'
loop_
 _atom_site_type_symbol
 _atom_site_label
 _atom_site_symmetry_multiplicity
 _atom_site_fract_x
 _atom_site_fract_y
 _atom_site_fract_z
 _atom_site_occupancy
  Na  Na0  1  0.00000000  0.00000000  0.00000000  1
  Zr  Zr0  1  0.48714600  0.50572100  0.76299900  1
  Zr  Zr1  1  0.51285400  0.49427900  0.23700100  1
  Cu  Cu0  1  0.00000000  0.00000000  0.50000000  1
  F  F0  1  0.25951100  0.72195600  0.11043900  1
  F  F1  1  0.18942000  0.23244200  0.70953600  1
  F  F2  1  0.77556900  0.81772200  0.66941600  1
  F  F3  1  0.74048900  0.27804400  0.88956100  1
  F  F4  1  0.33698200  0.32339600  0.01616500  1
  F  F5  1  0.81058000  0.76755800  0.29046400  1
  F  F6  1  0.76314100  0.23889700  0.35301800  1
  F  F7  1  0.23685900  0.76110300  0.64698200  1
  F  F8  1  0.22443100  0.18227800  0.33058400  1
  F  F9  1  0.50000000  0.50000000  0.50000000  1
  F  F10  1  0.66301800  0.67660400  0.98383500  1
loop_
_geom_bond_atom_site_label_1
_geom_bond_atom_site_label_2
_geom_bond_distance
_geom_bond_site_symmetry_2
Cu0 F1 1.694490 1_555
Cu0 F5 1.694490 1_445
Cu0 F8 2.255277 1_555
Cu0 F2 2.255277 1_445
Cu0 F7 2.616250 1_545
Cu0 F6 2.616250 1_455
F0 F4 2.371365 1_555
F0 Zr1 2.535565 1_555
F0 F10 2.617977 1_554
F0 F8 2.717964 1_565
F0 Na0 2.744770 1_565
F0 F5 3.055071 1_455
F0 F3 3.107609 1_454
F0 F6 3.267244 1_565
F1 Zr0 1.843972 1_555
F1 F4 2.250336 1_556
F1 F7 2.726276 1_545
F1 F3 3.055071 1_455
F1 F7 3.243443 1_555
F2 F9 1.945585 1_555
F2 Na0 2.431035 1_666
F2 Zr0 2.457841 1_555
F2 F3 2.717964 1_565
F2 F7 2.720148 1_655
F2 F7 2.926835 1_555
F3 Zr0 2.535565 1_555
F3 F4 2.617977 1_556
F3 Na0 2.744770 1_656
F3 F7 3.267244 1_545
F4 Zr1 1.665699 1_555
F4 Na0 2.225221 1_555
F5 Zr1 1.843972 1_555
F5 F6 2.726276 1_565
F5 F6 3.243443 1_555
F6 F9 2.504126 1_555
F6 Zr1 2.618565 1_555
F6 F8 2.720148 1_655
F6 F8 2.926835 1_555
F6 Na0 3.237853 1_655
F6 F7 3.282947 1_655
F7 F9 2.504126 1_555
F7 Zr0 2.618565 1_555
F7 Na0 3.237853 1_566
F8 F9 1.945585 1_555
F8 Na0 2.431035 1_555
F8 Zr1 2.457841 1_555
F9 Zr1 2.045302 1_555
F9 Zr0 2.045302 1_555
F10 Zr0 1.665699 1_555
F10 Na0 2.225221 1_666
F10 F5 2.250336 1_556
F10 F3 2.371365 1_555
