# generated using pymatgen
data_K4PH5Se3O16
_symmetry_space_group_name_H-M   'P 1'
_cell_length_a   7.58771000
_cell_length_b   7.79945631
_cell_length_c   7.86314821
_cell_angle_alpha   71.35419345
_cell_angle_beta   87.67894811
_cell_angle_gamma   85.71453692
_symmetry_Int_Tables_number   1
_chemical_formula_structural   K4PH5Se3O16
_chemical_formula_sum   'K4 P1 H5 Se3 O16'
_cell_volume   439.61622207
_cell_formula_units_Z   1
loop_
 _symmetry_equiv_pos_site_id
 _symmetry_equiv_pos_as_xyz
  1  'x, y, z'
loop_
 _atom_site_type_symbol
 _atom_site_label
 _atom_site_symmetry_multiplicity
 _atom_site_fract_x
 _atom_site_fract_y
 _atom_site_fract_z
 _atom_site_occupancy
  K  K0  1  0.03262100  0.74176600  0.21994100  1
  K  K1  1  0.33812500  0.81197800  0.66529900  1
  K  K2  1  0.65985800  0.19486800  0.33189500  1
  K  K3  1  0.96809400  0.25683000  0.78119600  1
  P  P0  1  0.54116500  0.71932000  0.19378800  1
  H  H0  1  0.25366300  0.42664800  0.03058500  1
  H  H1  1  0.37838900  0.92854200  0.96872900  1
  H  H2  1  0.49058800  0.53543200  0.47292700  1
  H  H3  1  0.64023300  0.99966700  0.08368500  1
  H  H4  1  0.74595000  0.57199700  0.97225400  1
  Se  Se0  1  0.12753400  0.21640100  0.27884900  1
  Se  Se1  1  0.46778100  0.27239700  0.80431300  1
  Se  Se2  1  0.87152600  0.78250700  0.72267500  1
  O  O0  1  0.00975800  0.13459100  0.15238500  1
  O  O1  1  0.00542100  0.26853900  0.43582800  1
  O  O2  1  0.19104600  0.43395400  0.14666600  1
  O  O3  1  0.31145800  0.09071500  0.34916200  1
  O  O4  1  0.34054100  0.10094600  0.81574600  1
  O  O5  1  0.33836700  0.44091100  0.84143800  1
  O  O6  1  0.38714000  0.79579300  0.05597500  1
  O  O7  1  0.44637700  0.65923600  0.38356100  1
  O  O8  1  0.56160900  0.35399300  0.60085500  1
  O  O9  1  0.62853200  0.19531900  0.95583500  1
  O  O10  1  0.65327700  0.56557200  0.16098300  1
  O  O11  1  0.65614000  0.88158300  0.19022800  1
  O  O12  1  0.68798000  0.90826800  0.65085300  1
  O  O13  1  0.80801700  0.56540600  0.85596400  1
  O  O14  1  0.99404900  0.73090200  0.56547500  1
  O  O15  1  0.98956000  0.86392000  0.84940900  1
loop_
_geom_bond_atom_site_label_1
_geom_bond_atom_site_label_2
_geom_bond_distance
_geom_bond_site_symmetry_2
K0 O14 2.695725 1_455
K0 O15 2.785469 1_454
K0 O2 2.817402 1_555
K0 O0 2.930293 1_565
K0 O6 2.935465 1_555
K0 O11 2.971477 1_455
K0 O7 3.379557 1_555
K0 O10 3.390415 1_455
K0 O1 3.553337 1_555
K1 O3 2.732388 1_565
K1 O5 2.780378 1_555
K1 O12 2.800498 1_555
K1 O4 2.862197 1_565
K1 O7 2.897513 1_555
K1 O14 2.926105 1_455
K1 O15 3.026498 1_455
K1 O6 3.070611 1_556
K2 O10 2.769006 1_555
K2 O12 2.778416 1_545
K2 O3 2.808571 1_555
K2 O8 2.825085 1_555
K2 O1 2.927812 1_655
K2 O9 2.974997 1_554
K2 O11 2.994236 1_545
K2 O0 3.032547 1_655
K3 O1 2.691924 1_655
K3 O0 2.788932 1_656
K3 O13 2.832543 1_555
K3 O9 2.868992 1_555
K3 O15 2.930312 1_545
K3 O4 2.979239 1_655
K3 O5 3.365212 1_655
K3 O8 3.378725 1_555
K3 O14 3.557933 1_555
H0 O2 1.027719 1_555
H0 O5 1.570016 1_554
H1 O6 1.042240 1_556
H1 O4 1.507840 1_565
H1 K1 2.846053 1_555
H2 O7 1.037072 1_555
H2 O8 1.524648 1_555
H3 O11 1.030945 1_555
H3 O9 1.534006 1_564
H3 K2 2.847224 1_565
H4 O13 1.025733 1_555
H4 O10 1.603879 1_556
O0 Se0 1.660576 1_555
O1 Se0 1.649092 1_555
O2 Se0 1.773578 1_555
O3 Se0 1.650971 1_555
O4 Se1 1.684462 1_555
O5 Se1 1.675147 1_555
O6 P0 1.575119 1_555
O7 P0 1.574765 1_555
O8 Se1 1.672042 1_555
O9 Se1 1.678929 1_555
O10 P0 1.501902 1_555
O11 P0 1.582367 1_555
O12 Se2 1.651053 1_555
O13 Se2 1.773158 1_555
O14 Se2 1.650249 1_555
O15 Se2 1.661408 1_555
