# generated using pymatgen
data_Sr9U9O34
_symmetry_space_group_name_H-M   'P 1'
_cell_length_a   7.76775900
_cell_length_b   8.73746533
_cell_length_c   12.00587587
_cell_angle_alpha   103.21374908
_cell_angle_beta   89.95190464
_cell_angle_gamma   99.67458731
_symmetry_Int_Tables_number   1
_chemical_formula_structural   Sr9U9O34
_chemical_formula_sum   'Sr9 U9 O34'
_cell_volume   781.38987877
_cell_formula_units_Z   1
loop_
 _symmetry_equiv_pos_site_id
 _symmetry_equiv_pos_as_xyz
  1  'x, y, z'
loop_
 _atom_site_type_symbol
 _atom_site_label
 _atom_site_symmetry_multiplicity
 _atom_site_fract_x
 _atom_site_fract_y
 _atom_site_fract_z
 _atom_site_occupancy
  Sr  Sr0  1  0.83394300  0.32732100  0.89275500  1
  Sr  Sr1  1  0.16549800  0.66543600  0.77553100  1
  Sr  Sr2  1  0.49770300  0.00597600  0.66512100  1
  Sr  Sr3  1  0.83501900  0.33651300  0.55686800  1
  Sr  Sr4  1  0.16418100  0.66232300  0.44634600  1
  Sr  Sr5  1  0.50033500  0.99718900  0.33563800  1
  Sr  Sr6  1  0.83358700  0.33139400  0.21642000  1
  Sr  Sr7  1  0.16405300  0.67633100  0.11256200  1
  Sr  Sr8  1  0.49932700  0.00142200  0.99914500  1
  U  U0  1  0.99228500  0.00155800  0.00383300  1
  U  U1  1  0.33172500  0.32641900  0.87994400  1
  U  U2  1  0.65996700  0.66150600  0.78462800  1
  U  U3  1  0.01152200  0.00746300  0.66687400  1
  U  U4  1  0.32741600  0.32912200  0.55356600  1
  U  U5  1  0.66100200  0.66123700  0.43492300  1
  U  U6  1  0.00128300  0.00614800  0.33202500  1
  U  U7  1  0.33019700  0.32583100  0.23010000  1
  U  U8  1  0.68124800  0.67667900  0.11313800  1
  O  O0  1  0.16027000  0.47673300  0.91524500  1
  O  O1  1  0.74489100  0.80509700  0.96467800  1
  O  O2  1  0.49018200  0.81279500  0.79752000  1
  O  O3  1  0.07307000  0.13189300  0.86351500  1
  O  O4  1  0.82014900  0.13758400  0.69135700  1
  O  O5  1  0.55668800  0.51462200  0.95440200  1
  O  O6  1  0.41490100  0.47591900  0.74299500  1
  O  O7  1  0.14766800  0.47296800  0.57941700  1
  O  O8  1  0.17744900  0.86710200  0.97072200  1
  O  O9  1  0.88545100  0.84222800  0.76796400  1
  O  O10  1  0.48964100  0.81197800  0.47301900  1
  O  O11  1  0.51225100  0.18442800  0.85858200  1
  O  O12  1  0.26422800  0.18901900  0.69358200  1
  O  O13  1  0.05858800  0.13300400  0.52024000  1
  O  O14  1  0.82146600  0.14453900  0.35329600  1
  O  O15  1  0.83593500  0.51484100  0.76618400  1
  O  O16  1  0.63597900  0.59194200  0.59845600  1
  O  O17  1  0.41208700  0.47263500  0.41579100  1
  O  O18  1  0.16353000  0.47975600  0.24409500  1
  O  O19  1  0.18849800  0.86108100  0.64257700  1
  O  O20  1  0.88486100  0.83940700  0.51345200  1
  O  O21  1  0.74518700  0.80572700  0.30271200  1
  O  O22  1  0.48616900  0.80490900  0.13407900  1
  O  O23  1  0.52131900  0.20342500  0.53263700  1
  O  O24  1  0.26125100  0.18369000  0.36738100  1
  O  O25  1  0.07459200  0.14891900  0.18536100  1
  O  O26  1  0.81020300  0.13914600  0.02600600  1
  O  O27  1  0.83609500  0.51360400  0.40521500  1
  O  O28  1  0.55677400  0.51445700  0.21844800  1
  O  O29  1  0.17094700  0.85570200  0.31852200  1
  O  O30  1  0.94093600  0.86294000  0.14239700  1
  O  O31  1  0.50876100  0.18224700  0.20342100  1
  O  O32  1  0.30151600  0.25585700  0.04247700  1
  O  O33  1  0.85817600  0.52993800  0.08817000  1
loop_
_geom_bond_atom_site_label_1
_geom_bond_atom_site_label_2
_geom_bond_distance
_geom_bond_site_symmetry_2
O0 U1 2.002692 1_555
O0 Sr7 2.597778 1_556
O0 Sr1 2.602985 1_555
O0 Sr0 2.632550 1_455
O0 O6 2.860070 1_555
O0 O3 2.895190 1_555
O0 O5 3.066141 1_555
O1 U2 2.272962 1_555
O1 U0 2.320433 1_566
O1 U8 2.325231 1_556
O1 O30 2.526021 1_556
O1 O9 2.664959 1_555
O1 O5 2.684031 1_555
O1 Sr8 2.743388 1_565
O1 O26 2.799825 1_566
O1 O2 2.838965 1_555
O1 O22 2.858109 1_556
O2 U2 2.000691 1_555
O2 Sr2 2.563686 1_565
O2 Sr8 2.591928 1_565
O2 Sr1 2.615834 1_555
O2 O6 2.824106 1_555
O2 O9 3.064903 1_555
O3 U0 2.272390 1_456
O3 U3 2.374437 1_555
O3 U1 2.379949 1_555
O3 O32 2.689796 1_556
O3 Sr0 2.698162 1_455
O3 O9 2.698393 1_445
O3 O4 2.867226 1_455
O3 O8 3.108122 1_545
O4 U3 2.000834 1_655
O4 Sr2 2.561769 1_555
O4 Sr0 2.591241 1_555
O4 Sr3 2.618555 1_555
O4 O9 3.047769 1_545
O5 U8 2.209528 1_556
O5 U1 2.218470 1_555
O5 O6 2.693802 1_555
O5 U2 2.700450 1_555
O5 Sr0 2.914178 1_555
O6 U2 2.257565 1_555
O6 U1 2.350219 1_555
O6 U4 2.378082 1_555
O6 Sr1 2.725612 1_555
O6 O7 2.851704 1_555
O7 U4 2.009039 1_555
O7 Sr3 2.504626 1_455
O7 Sr4 2.538295 1_555
O7 Sr1 2.550114 1_555
O8 U0 1.990072 1_466
O8 Sr8 2.564618 1_565
O8 Sr1 2.581233 1_555
O8 Sr7 2.632154 1_556
O9 U2 2.194418 1_555
O9 U3 2.200058 1_665
O9 Sr1 2.884507 1_655
O9 U0 2.908480 1_566
O10 U5 2.007127 1_555
O10 Sr2 2.524618 1_565
O10 Sr5 2.553626 1_555
O10 Sr4 2.627259 1_555
O10 O17 2.845209 1_555
O10 O21 2.846505 1_555
O10 O16 3.052440 1_555
O10 O20 3.069177 1_555
O11 U1 2.002505 1_555
O11 Sr2 2.474729 1_555
O11 Sr8 2.567928 1_555
O11 Sr0 2.586545 1_555
O11 O32 2.766029 1_556
O11 O12 2.776019 1_555
O11 O5 2.813318 1_555
O12 U3 2.279125 1_555
O12 U1 2.298847 1_555
O12 U4 2.302757 1_555
O12 O6 2.518112 1_555
O12 O13 2.529691 1_555
O12 Sr2 2.586055 1_555
O12 O3 2.612992 1_555
O12 O19 2.750121 1_545
O12 O23 2.785299 1_555
O13 U3 2.276639 1_555
O13 U6 2.285540 1_555
O13 U4 2.437674 1_555
O13 O24 2.484900 1_555
O13 Sr3 2.655225 1_455
O13 O20 2.673860 1_445
O13 O14 2.753357 1_455
O13 O4 2.762888 1_455
O13 O7 2.855201 1_555
O14 U6 1.975911 1_655
O14 Sr6 2.559198 1_555
O14 Sr5 2.592600 1_545
O14 Sr3 2.620105 1_555
O14 O25 2.817075 1_655
O14 O21 2.841259 1_545
O15 U2 2.004513 1_555
O15 Sr0 2.474594 1_555
O15 Sr3 2.636155 1_555
O15 Sr1 2.664249 1_655
O15 O16 2.810424 1_555
O15 O9 2.816614 1_555
O16 U2 2.177529 1_555
O16 U5 2.182291 1_555
O16 O6 2.683687 1_555
O16 O17 2.696792 1_555
O16 O27 2.809436 1_555
O16 Sr3 2.875703 1_555
O16 U4 2.982467 1_555
O16 O20 3.009106 1_555
O16 O9 3.037575 1_555
O16 O2 3.056093 1_555
O17 U5 2.294254 1_555
O17 U4 2.325992 1_555
O17 U7 2.332573 1_555
O17 O24 2.533879 1_555
O17 O28 2.695076 1_555
O17 Sr4 2.717224 1_555
O17 O7 2.840857 1_555
O17 O18 2.843676 1_555
O18 U7 1.998657 1_555
O18 Sr4 2.582106 1_555
O18 Sr7 2.584853 1_555
O18 Sr6 2.654662 1_455
O18 O25 2.779974 1_555
O18 O28 3.040935 1_555
O19 U3 2.007608 1_565
O19 Sr2 2.503451 1_565
O19 Sr4 2.573328 1_555
O19 Sr1 2.578059 1_555
O19 O20 2.779183 1_455
O19 O9 2.794940 1_455
O20 U5 2.181285 1_555
O20 U3 2.190423 1_665
O20 O21 2.687403 1_555
O20 O27 2.807672 1_555
O20 Sr4 2.882045 1_655
O20 U6 2.947799 1_665
O20 O9 3.050101 1_555
O21 U5 2.275508 1_555
O21 U8 2.310556 1_555
O21 U6 2.386696 1_665
O21 O30 2.538887 1_555
O21 O28 2.686228 1_555
O21 Sr5 2.708887 1_555
O21 O22 2.853506 1_555
O22 U8 2.013938 1_555
O22 Sr7 2.552075 1_555
O22 Sr5 2.601962 1_555
O22 Sr8 2.606802 1_564
O22 O5 3.057825 1_554
O22 O28 3.067776 1_555
O23 U4 1.991769 1_555
O23 Sr3 2.503746 1_555
O23 Sr2 2.586039 1_555
O23 Sr5 2.611726 1_545
O23 O24 2.789336 1_555
O24 U7 2.292712 1_555
O24 U6 2.304776 1_555
O24 U4 2.315025 1_555
O24 O25 2.554191 1_555
O24 Sr5 2.642292 1_545
O24 O31 2.749894 1_555
O24 O29 2.757784 1_545
O25 U7 2.282695 1_555
O25 U0 2.293286 1_455
O25 U6 2.396810 1_555
O25 O30 2.475346 1_445
O25 Sr6 2.629815 1_455
O25 O32 2.664023 1_555
O25 O26 2.785373 1_455
O26 U0 1.985211 1_555
O26 Sr6 2.494667 1_555
O26 Sr8 2.496115 1_554
O26 Sr0 2.529182 1_554
O26 O3 2.821242 1_654
O27 U5 2.004867 1_555
O27 Sr6 2.452063 1_555
O27 Sr3 2.644414 1_555
O27 Sr4 2.650076 1_655
O28 U8 2.213386 1_555
O28 U7 2.227890 1_555
O28 U5 2.680605 1_555
O28 O33 2.816052 1_555
O28 O31 2.827367 1_555
O28 Sr6 2.884530 1_555
O29 U6 1.993893 1_565
O29 Sr4 2.523534 1_555
O29 Sr7 2.602660 1_555
O29 Sr5 2.634124 1_555
O29 O30 2.787993 1_455
O30 U0 2.269623 1_565
O30 U6 2.338989 1_665
O30 U8 2.340406 1_555
O30 Sr7 2.544058 1_655
O30 O8 2.762275 1_654
O30 O33 2.794439 1_555
O31 U7 2.000203 1_555
O31 Sr5 2.505238 1_545
O31 Sr8 2.589664 1_554
O31 Sr6 2.625171 1_555
O31 O32 2.767719 1_555
O32 U1 2.177972 1_554
O32 U7 2.196130 1_555
O32 Sr8 2.862150 1_554
O32 U0 2.942572 1_455
O33 U8 2.009576 1_555
O33 Sr7 2.485075 1_655
O33 Sr6 2.554613 1_555
O33 Sr0 2.581436 1_554
O33 O5 2.807901 1_554
