# generated using pymatgen
data_MnSbSe2Br
_symmetry_space_group_name_H-M   'P 1'
_cell_length_a   3.92547400
_cell_length_b   10.90010100
_cell_length_c   27.60690293
_cell_angle_alpha   89.83111701
_cell_angle_beta   90.00000000
_cell_angle_gamma   90.00000000
_symmetry_Int_Tables_number   1
_chemical_formula_structural   MnSbSe2Br
_chemical_formula_sum   'Mn8 Sb8 Se16 Br8'
_cell_volume   1181.24077224
_cell_formula_units_Z   8
loop_
 _symmetry_equiv_pos_site_id
 _symmetry_equiv_pos_as_xyz
  1  'x, y, z'
loop_
 _atom_site_type_symbol
 _atom_site_label
 _atom_site_symmetry_multiplicity
 _atom_site_fract_x
 _atom_site_fract_y
 _atom_site_fract_z
 _atom_site_occupancy
  Mn  Mn0  1  0.50000000  0.00053000  0.49916200  1
  Mn  Mn1  1  0.50000000  0.93030200  0.24442300  1
  Mn  Mn2  1  0.50000000  0.42489500  0.25583500  1
  Mn  Mn3  1  0.50000000  0.57575800  0.74411900  1
  Mn  Mn4  1  0.50000000  0.99906100  0.00036300  1
  Mn  Mn5  1  0.50000000  0.06894800  0.75558600  1
  Mn  Mn6  1  0.50000000  0.51428500  0.50254000  1
  Mn  Mn7  1  0.50000000  0.49983000  0.99977700  1
  Sb  Sb0  1  0.50000000  0.35229000  0.14408400  1
  Sb  Sb1  1  0.00000000  0.17307500  0.39773900  1
  Sb  Sb2  1  0.50000000  0.14526900  0.64364300  1
  Sb  Sb3  1  0.00000000  0.82528500  0.60299100  1
  Sb  Sb4  1  0.00000000  0.32813000  0.89667300  1
  Sb  Sb5  1  0.50000000  0.85393000  0.35589800  1
  Sb  Sb6  1  0.00000000  0.67180700  0.10297200  1
  Sb  Sb7  1  0.50000000  0.64791000  0.85583100  1
  Se  Se0  1  0.50000000  0.73057600  0.03565200  1
  Se  Se1  1  0.00000000  0.72240700  0.79075800  1
  Se  Se2  1  0.00000000  0.21763700  0.70863200  1
  Se  Se3  1  0.50000000  0.22954000  0.46454800  1
  Se  Se4  1  0.50000000  0.76636500  0.53535300  1
  Se  Se5  1  0.50000000  0.42665800  0.81874500  1
  Se  Se6  1  0.00000000  0.94833700  0.43406100  1
  Se  Se7  1  0.00000000  0.04875100  0.56570200  1
  Se  Se8  1  0.50000000  0.57360300  0.18092300  1
  Se  Se9  1  0.00000000  0.55143600  0.93352100  1
  Se  Se10  1  0.50000000  0.26959700  0.96392800  1
  Se  Se11  1  0.00000000  0.78096400  0.29103900  1
  Se  Se12  1  0.50000000  0.92253400  0.68039900  1
  Se  Se13  1  0.50000000  0.07630000  0.31923800  1
  Se  Se14  1  0.00000000  0.27788700  0.20904900  1
  Se  Se15  1  0.00000000  0.44878200  0.06583900  1
  Br  Br0  1  0.50000000  0.41645300  0.57872200  1
  Br  Br1  1  0.00000000  0.94542000  0.18292300  1
  Br  Br2  1  0.00000000  0.05455900  0.81698100  1
  Br  Br3  1  0.50000000  0.58019000  0.42189600  1
  Br  Br4  1  0.00000000  0.55550500  0.68298800  1
  Br  Br5  1  0.50000000  0.08293600  0.07851200  1
  Br  Br6  1  0.50000000  0.91821600  0.92199200  1
  Br  Br7  1  0.00000000  0.44404400  0.31696300  1
loop_
_geom_bond_atom_site_label_1
_geom_bond_atom_site_label_2
_geom_bond_distance
_geom_bond_site_symmetry_2
Mn0 Se3 2.670254 1_555
Mn0 Se6 2.722514 1_545
Mn0 Se6 2.722514 1_645
Mn0 Se4 2.738260 1_545
Mn0 Se7 2.740207 1_655
Mn0 Se7 2.740207 1_555
Mn1 Se13 2.611097 1_565
Mn1 Se11 2.854100 1_655
Mn1 Se11 2.854100 1_555
Mn2 Se8 2.623861 1_555
Mn2 Se14 2.846138 1_555
Mn2 Se14 2.846138 1_655
Mn3 Se5 2.620295 1_555
Mn3 Se1 2.842084 1_655
Mn3 Se1 2.842084 1_555
Mn4 Se0 3.081684 1_555
Mn4 Se10 3.112892 1_564
Mn5 Se12 2.622015 1_545
Mn5 Se2 2.854291 1_555
Mn5 Se2 2.854291 1_655
Mn6 Se4 2.895705 1_555
Mn6 Se3 3.279103 1_555
Mn7 Se10 2.700373 1_555
Mn7 Se0 2.705841 1_556
Mn7 Se15 2.735342 1_556
Mn7 Se15 2.735342 1_656
Mn7 Se9 2.740142 1_555
Mn7 Se9 2.740142 1_655
Sb0 Se8 2.620712 1_555
Sb0 Se14 2.778140 1_655
Sb0 Se14 2.778140 1_555
Sb0 Se15 3.100195 1_555
Sb0 Se15 3.100195 1_655
Sb1 Se6 2.644215 1_545
Sb1 Se3 2.763984 1_555
Sb1 Se3 2.763984 1_455
Sb1 Se13 3.110492 1_555
Sb1 Se13 3.110492 1_455
Sb2 Se12 2.628595 1_545
Sb2 Se2 2.775224 1_655
Sb2 Se2 2.775224 1_555
Sb2 Se7 3.098767 1_555
Sb2 Se7 3.098767 1_655
Sb3 Se7 2.641606 1_565
Sb3 Se4 2.785424 1_455
Sb3 Se4 2.785424 1_555
Sb3 Se12 3.091293 1_455
Sb3 Se12 3.091293 1_555
Sb4 Se9 2.640843 1_555
Sb4 Se10 2.774844 1_455
Sb4 Se10 2.774844 1_555
Sb4 Se5 3.101681 1_555
Sb4 Se5 3.101681 1_455
Sb5 Se13 2.623909 1_565
Sb5 Se11 2.774776 1_655
Sb5 Se11 2.774776 1_555
Sb5 Se6 3.095259 1_655
Sb5 Se6 3.095259 1_555
Sb6 Se15 2.641082 1_555
Sb6 Se0 2.776631 1_455
Sb6 Se0 2.776631 1_555
Sb6 Se8 3.100907 1_555
Sb6 Se8 3.100907 1_455
Sb7 Se5 2.622772 1_555
Sb7 Se1 2.780360 1_655
Sb7 Se1 2.780360 1_555
Sb7 Se9 3.089488 1_555
Sb7 Se9 3.089488 1_655
Br0 Mn6 2.355245 1_555
Br0 Sb2 3.452323 1_555
Br0 Se3 3.758162 1_555
Br1 Mn1 2.600087 1_455
Br1 Mn1 2.600087 1_555
Br1 Se14 3.697086 1_565
Br2 Mn5 2.597719 1_555
Br2 Mn5 2.597719 1_455
Br2 Se1 3.694250 1_545
Br3 Mn6 2.337344 1_555
Br3 Sb5 3.491513 1_555
Br3 Se4 3.737150 1_555
Br4 Mn3 2.598343 1_455
Br4 Mn3 2.598343 1_555
Br4 Sb3 3.672377 1_555
Br4 Se2 3.748174 1_555
Br5 Mn4 2.345650 1_545
Br5 Sb0 3.453739 1_555
Br5 Se10 3.756099 1_554
Br6 Mn4 2.338561 1_556
Br6 Sb7 3.471150 1_555
Br6 Se0 3.740480 1_556
Br7 Mn2 2.597272 1_555
Br7 Mn2 2.597272 1_455
Br7 Sb1 3.695626 1_555
Br7 Se11 3.739476 1_555
