# generated using pymatgen
data_K3AsO4
_symmetry_space_group_name_H-M   'P 1'
_cell_length_a   8.27960089
_cell_length_b   8.27960089
_cell_length_c   16.89061602
_cell_angle_alpha   90.00000000
_cell_angle_beta   90.00000000
_cell_angle_gamma   96.24265916
_symmetry_Int_Tables_number   1
_chemical_formula_structural   K3AsO4
_chemical_formula_sum   'K24 As8 O32'
_cell_volume   1151.01606099
_cell_formula_units_Z   8
loop_
 _symmetry_equiv_pos_site_id
 _symmetry_equiv_pos_as_xyz
  1  'x, y, z'
loop_
 _atom_site_type_symbol
 _atom_site_label
 _atom_site_symmetry_multiplicity
 _atom_site_fract_x
 _atom_site_fract_y
 _atom_site_fract_z
 _atom_site_occupancy
  K  K0  1  -0.00000000  0.00000000  0.60584000  1
  K  K1  1  -0.00000000  0.50000000  0.85244144  1
  K  K2  1  -0.00000000  0.00000000  0.39416000  1
  K  K3  1  0.50000000  0.00000000  0.88807612  1
  K  K4  1  0.71648744  0.20786892  0.50000000  1
  K  K5  1  0.50000000  0.00000000  0.35244144  1
  K  K6  1  0.21961067  0.21961067  0.75000000  1
  K  K7  1  0.78038933  0.78038933  0.75000000  1
  K  K8  1  -0.00000000  0.50000000  0.14755856  1
  K  K9  1  0.79213108  0.28351256  -0.00000000  1
  K  K10  1  0.50000000  0.00000000  0.11192388  1
  K  K11  1  0.50000000  0.50000000  0.36648000  1
  K  K12  1  -0.00000000  0.50000000  0.38807612  1
  K  K13  1  0.50000000  0.50000000  0.13352000  1
  K  K14  1  0.50000000  0.00000000  0.64755856  1
  K  K15  1  -0.00000000  0.00000000  0.89416000  1
  K  K16  1  0.21961067  0.21961067  0.25000000  1
  K  K17  1  -0.00000000  0.50000000  0.61192388  1
  K  K18  1  0.50000000  0.50000000  0.86648000  1
  K  K19  1  0.78038933  0.78038933  0.25000000  1
  K  K20  1  0.28351256  0.79213108  0.50000000  1
  K  K21  1  0.50000000  0.50000000  0.63352000  1
  K  K22  1  -0.00000000  0.00000000  0.10584000  1
  K  K23  1  0.20786892  0.71648744  -0.00000000  1
  As  As0  1  0.23973448  0.28224234  0.50000000  1
  As  As1  1  0.76026552  0.71775766  0.50000000  1
  As  As2  1  0.26891754  0.73108246  0.25000000  1
  As  As3  1  0.26891754  0.73108246  0.75000000  1
  As  As4  1  0.73108246  0.26891754  0.75000000  1
  As  As5  1  0.73108246  0.26891754  0.25000000  1
  As  As6  1  0.71775766  0.76026552  -0.00000000  1
  As  As7  1  0.28224234  0.23973448  -0.00000000  1
  O  O0  1  0.22632635  0.52653304  0.26276886  1
  O  O1  1  0.79398134  0.17318264  0.66805724  1
  O  O2  1  0.19921610  0.31396247  0.08303676  1
  O  O3  1  0.52653304  0.22632635  0.23723114  1
  O  O4  1  0.48775252  0.28496561  -0.00000000  1
  O  O5  1  0.17318264  0.79398134  0.16805724  1
  O  O6  1  0.20601866  0.82681736  0.33194276  1
  O  O7  1  0.20601866  0.82681736  0.66805724  1
  O  O8  1  0.77367365  0.47346696  0.73723114  1
  O  O9  1  0.03228724  0.24224620  0.50000000  1
  O  O10  1  0.51224748  0.71503439  -0.00000000  1
  O  O11  1  0.82681736  0.20601866  0.16805724  1
  O  O12  1  0.71503439  0.51224748  0.50000000  1
  O  O13  1  0.80078390  0.68603753  0.91696324  1
  O  O14  1  0.96771276  0.75775380  0.50000000  1
  O  O15  1  0.68603753  0.80078390  0.58303676  1
  O  O16  1  0.31396247  0.19921610  0.41696324  1
  O  O17  1  0.82681736  0.20601866  0.83194276  1
  O  O18  1  0.19921610  0.31396247  0.91696324  1
  O  O19  1  0.28496561  0.48775252  0.50000000  1
  O  O20  1  0.22632635  0.52653304  0.73723114  1
  O  O21  1  0.31396247  0.19921610  0.58303676  1
  O  O22  1  0.52653304  0.22632635  0.76276886  1
  O  O23  1  0.80078390  0.68603753  0.08303676  1
  O  O24  1  0.75775380  0.96771276  -0.00000000  1
  O  O25  1  0.77367365  0.47346696  0.26276886  1
  O  O26  1  0.17318264  0.79398134  0.83194276  1
  O  O27  1  0.47346696  0.77367365  0.23723114  1
  O  O28  1  0.24224620  0.03228724  -0.00000000  1
  O  O29  1  0.79398134  0.17318264  0.33194276  1
  O  O30  1  0.47346696  0.77367365  0.76276886  1
  O  O31  1  0.68603753  0.80078390  0.41696324  1
loop_
_geom_bond_atom_site_label_1
_geom_bond_atom_site_label_2
_geom_bond_distance
_geom_bond_site_symmetry_2
K0 O1 2.569416 1_455
K0 O7 2.569416 1_545
K0 O9 2.678353 1_555
K0 O14 2.678353 1_445
K0 O21 2.948526 1_555
K0 O15 2.948526 1_445
K0 K7 3.438359 1_445
K0 K6 3.438359 1_555
K1 O18 2.614082 1_555
K1 O13 2.614082 1_455
K1 O8 2.693885 1_455
K1 O20 2.693885 1_555
K1 O26 2.709512 1_555
K1 O17 2.709512 1_455
K1 K9 3.422839 1_456
K1 K23 3.422839 1_556
K2 O29 2.569416 1_455
K2 O6 2.569416 1_545
K2 O9 2.678353 1_555
K2 O14 2.678353 1_445
K2 O16 2.948526 1_555
K2 O31 2.948526 1_445
K3 O30 2.819547 1_545
K3 O22 2.819547 1_555
K3 O24 2.885093 1_546
K3 O28 2.885093 1_556
K3 O4 3.033635 1_556
K3 O10 3.033635 1_546
K3 O17 3.182251 1_555
K3 O26 3.182251 1_545
K4 O12 2.521470 1_555
K4 O9 2.599192 1_655
K4 O29 2.931181 1_555
K4 O1 2.931181 1_555
K4 K5 3.422839 1_555
K5 O16 2.614082 1_555
K5 O31 2.614082 1_545
K5 O3 2.693885 1_555
K5 O27 2.693885 1_545
K5 O6 2.709512 1_545
K5 O29 2.709512 1_555
K6 O20 2.544906 1_555
K6 O22 2.544906 1_555
K6 O21 2.936069 1_555
K6 O18 2.936069 1_555
K6 O17 3.524957 1_455
K6 O7 3.524957 1_545
K7 O8 2.544906 1_555
K7 O30 2.544906 1_555
K7 O15 2.936069 1_555
K7 O13 2.936069 1_555
K7 O1 3.524957 1_565
K7 O26 3.524957 1_655
K8 O2 2.614082 1_555
K8 O23 2.614082 1_455
K8 O25 2.693885 1_455
K8 O0 2.693885 1_555
K8 O5 2.709512 1_555
K8 O11 2.709512 1_455
K8 K9 3.422839 1_455
K9 O4 2.521470 1_555
K9 O24 2.599192 1_545
K9 O17 2.931181 1_554
K9 O11 2.931181 1_555
K10 O3 2.819547 1_555
K10 O27 2.819547 1_545
K10 O24 2.885093 1_545
K10 O28 2.885093 1_555
K10 O4 3.033635 1_555
K10 O10 3.033635 1_545
K10 O11 3.182251 1_555
K10 O5 3.182251 1_545
K11 O19 2.868262 1_555
K11 O12 2.868262 1_555
K11 O25 2.891275 1_555
K11 O0 2.891275 1_555
K11 O31 2.909874 1_555
K11 O16 2.909874 1_555
K11 O3 3.171239 1_555
K11 O27 3.171239 1_555
K12 O0 2.819547 1_555
K12 O25 2.819547 1_455
K12 O14 2.885093 1_455
K12 O9 2.885093 1_555
K12 O19 3.033635 1_555
K12 O12 3.033635 1_455
K12 O6 3.182251 1_555
K12 O29 3.182251 1_455
K13 O10 2.868262 1_555
K13 O4 2.868262 1_555
K13 O3 2.891275 1_555
K13 O27 2.891275 1_555
K13 O23 2.909874 1_555
K13 O2 2.909874 1_555
K13 O25 3.171239 1_555
K13 O0 3.171239 1_555
K14 O21 2.614082 1_555
K14 O15 2.614082 1_545
K14 O22 2.693885 1_555
K14 O30 2.693885 1_545
K14 O7 2.709512 1_545
K14 O1 2.709512 1_555
K14 K4 3.422839 1_555
K14 K20 3.422839 1_545
K15 O17 2.569416 1_455
K15 O26 2.569416 1_545
K15 O28 2.678353 1_556
K15 O24 2.678353 1_446
K15 O18 2.948526 1_555
K15 O13 2.948526 1_445
K15 K7 3.438359 1_445
K15 K6 3.438359 1_555
K16 O0 2.544906 1_555
K16 O3 2.544906 1_555
K16 O2 2.936069 1_555
K16 O16 2.936069 1_555
K16 K2 3.438359 1_555
K16 K22 3.438359 1_555
K16 O11 3.524957 1_455
K16 O6 3.524957 1_545
K17 O8 2.819547 1_455
K17 O20 2.819547 1_555
K17 O14 2.885093 1_455
K17 O9 2.885093 1_555
K17 O19 3.033635 1_555
K17 O12 3.033635 1_455
K17 O1 3.182251 1_455
K17 O7 3.182251 1_555
K18 O10 2.868262 1_556
K18 O4 2.868262 1_556
K18 O30 2.891275 1_555
K18 O22 2.891275 1_555
K18 O13 2.909874 1_555
K18 O18 2.909874 1_555
K18 O20 3.171239 1_555
K18 O8 3.171239 1_555
K19 O25 2.544906 1_555
K19 O27 2.544906 1_555
K19 O23 2.936069 1_555
K19 O31 2.936069 1_555
K19 K2 3.438359 1_665
K19 K22 3.438359 1_665
K19 O29 3.524957 1_565
K19 O5 3.524957 1_655
K20 O19 2.521470 1_555
K20 O14 2.599192 1_455
K20 O6 2.931181 1_555
K20 O7 2.931181 1_555
K20 K5 3.422839 1_565
K21 O19 2.868262 1_555
K21 O12 2.868262 1_555
K21 O20 2.891275 1_555
K21 O8 2.891275 1_555
K21 O15 2.909874 1_555
K21 O21 2.909874 1_555
K21 O30 3.171239 1_555
K21 O22 3.171239 1_555
K22 O11 2.569416 1_455
K22 O5 2.569416 1_545
K22 O28 2.678353 1_555
K22 O24 2.678353 1_445
K22 O2 2.948526 1_555
K22 O23 2.948526 1_445
K23 O10 2.521470 1_555
K23 O28 2.599192 1_565
K23 O5 2.931181 1_555
K23 O26 2.931181 1_554
K23 K8 3.422839 1_555
As0 O19 1.702031 1_555
As0 O16 1.705656 1_555
As0 O21 1.705656 1_555
As0 O9 1.713489 1_555
As1 O12 1.702031 1_555
As1 O31 1.705656 1_555
As1 O15 1.705656 1_555
As1 O14 1.713489 1_555
As2 O5 1.704378 1_555
As2 O6 1.704378 1_555
As2 O0 1.705645 1_555
As2 O27 1.705645 1_555
As3 O26 1.704378 1_555
As3 O7 1.704378 1_555
As3 O30 1.705645 1_555
As3 O20 1.705645 1_555
As4 O1 1.704378 1_555
As4 O17 1.704378 1_555
As4 O8 1.705645 1_555
As4 O22 1.705645 1_555
As5 O29 1.704378 1_555
As5 O11 1.704378 1_555
As5 O3 1.705645 1_555
As5 O25 1.705645 1_555
As6 O10 1.702031 1_555
As6 O13 1.705656 1_554
As6 O23 1.705656 1_555
As6 O24 1.713489 1_555
As7 O4 1.702031 1_555
As7 O18 1.705656 1_554
As7 O2 1.705656 1_555
As7 O28 1.713489 1_555
