# generated using pymatgen
data_RbPrP3HO10
_symmetry_space_group_name_H-M   'P 1'
_cell_length_a   7.19857600
_cell_length_b   7.98370898
_cell_length_c   9.07175338
_cell_angle_alpha   70.67290835
_cell_angle_beta   73.19278346
_cell_angle_gamma   82.67487753
_symmetry_Int_Tables_number   1
_chemical_formula_structural   RbPrP3HO10
_chemical_formula_sum   'Rb2 Pr2 P6 H2 O20'
_cell_volume   470.67601263
_cell_formula_units_Z   2
loop_
 _symmetry_equiv_pos_site_id
 _symmetry_equiv_pos_as_xyz
  1  'x, y, z'
loop_
 _atom_site_type_symbol
 _atom_site_label
 _atom_site_symmetry_multiplicity
 _atom_site_fract_x
 _atom_site_fract_y
 _atom_site_fract_z
 _atom_site_occupancy
  Rb  Rb0  1  0.26447800  0.33359100  0.96476200  1
  Rb  Rb1  1  0.73552200  0.66640900  0.03523800  1
  Pr  Pr0  1  0.72358200  0.63417100  0.51467800  1
  Pr  Pr1  1  0.27641800  0.36582900  0.48532200  1
  P  P0  1  0.82757100  0.32068500  0.35472100  1
  P  P1  1  0.82888900  0.22146800  0.81064700  1
  P  P2  1  0.17111100  0.77853200  0.18935300  1
  P  P3  1  0.35227800  0.96233300  0.35661200  1
  P  P4  1  0.17242900  0.67931500  0.64527900  1
  P  P5  1  0.64772200  0.03766700  0.64338800  1
  H  H0  1  0.33386100  0.90463400  0.92781500  1
  H  H1  1  0.66613900  0.09536600  0.07218500  1
  O  O0  1  0.79494400  0.12690000  0.99945100  1
  O  O1  1  0.95233100  0.37245500  0.44464400  1
  O  O2  1  0.45619300  0.13921600  0.67444800  1
  O  O3  1  0.36621500  0.56749400  0.61657700  1
  O  O4  1  0.64199200  0.83921000  0.67879400  1
  O  O5  1  0.77205500  0.11260100  0.45925900  1
  O  O6  1  0.22385300  0.93834400  0.24578300  1
  O  O7  1  0.08281500  0.67195800  0.81636200  1
  O  O8  1  0.22794500  0.88739900  0.54074100  1
  O  O9  1  0.54380700  0.86078400  0.32555200  1
  O  O10  1  0.77614700  0.06165600  0.75421700  1
  O  O11  1  0.35800800  0.16079000  0.32120600  1
  O  O12  1  0.95617800  0.75210100  0.25257300  1
  O  O13  1  0.91718500  0.32804200  0.18363800  1
  O  O14  1  0.30871900  0.61882400  0.22790000  1
  O  O15  1  0.69128100  0.38117600  0.77210000  1
  O  O16  1  0.04766900  0.62754500  0.55535600  1
  O  O17  1  0.63378500  0.43250600  0.38342300  1
  O  O18  1  0.04382200  0.24789900  0.74742700  1
  O  O19  1  0.20505600  0.87310000  0.00054900  1
loop_
_geom_bond_atom_site_label_1
_geom_bond_atom_site_label_2
_geom_bond_distance
_geom_bond_site_symmetry_2
H0 O19 0.976851 1_556
H0 Rb1 3.453616 1_556
H1 O0 0.976851 1_554
H1 Rb0 3.453616 1_554
O0 P1 1.585057 1_555
O1 P0 1.544145 1_555
O1 Pr1 2.456660 1_655
O1 Pr0 2.622470 1_555
O2 P5 1.509673 1_555
O2 Pr1 2.554209 1_555
O2 Rb0 3.362464 1_555
O3 P4 1.561094 1_555
O3 Pr0 2.530625 1_555
O3 Pr1 2.531269 1_555
O3 Rb0 3.017825 1_555
O4 P5 1.512419 1_565
O4 Pr0 2.470540 1_555
O4 Rb1 3.298774 1_556
O5 P5 1.599880 1_555
O5 P0 1.651124 1_555
O6 P3 1.616269 1_555
O6 P2 1.643889 1_555
O6 Rb0 3.319854 1_564
O7 P4 1.482799 1_555
O7 Rb1 2.700724 1_456
O7 Rb0 2.920651 1_555
O8 P3 1.599880 1_555
O8 P4 1.651124 1_555
O9 P3 1.509673 1_555
O9 Pr0 2.554209 1_555
O9 Rb1 3.362464 1_555
O10 P5 1.616269 1_555
O10 P1 1.643889 1_555
O10 Rb1 3.319854 1_546
O11 P3 1.512419 1_545
O11 Pr1 2.470540 1_555
O11 Rb0 3.298774 1_554
O12 P2 1.502432 1_655
O12 Pr0 2.441606 1_555
O12 Rb1 3.139963 1_555
O13 P0 1.482799 1_555
O13 Rb0 2.700724 1_654
O13 Rb1 2.920651 1_555
O14 P2 1.520667 1_555
O14 Pr1 2.504165 1_555
O14 Rb1 3.064519 1_555
O15 P1 1.520667 1_555
O15 Pr0 2.504165 1_555
O15 Rb0 3.064519 1_555
O16 P4 1.544145 1_555
O16 Pr0 2.456660 1_455
O16 Pr1 2.622470 1_555
O17 P0 1.561094 1_555
O17 Pr1 2.530625 1_555
O17 Pr0 2.531269 1_555
O17 Rb1 3.017825 1_555
O18 P1 1.502432 1_455
O18 Pr1 2.441606 1_555
O18 Rb0 3.139963 1_555
O19 P2 1.585057 1_555
