# generated using pymatgen
data_Nd10Se19
_symmetry_space_group_name_H-M   'P 1'
_cell_length_a   8.34978600
_cell_length_b   9.51315807
_cell_length_c   18.72937473
_cell_angle_alpha   88.77550855
_cell_angle_beta   89.98430967
_cell_angle_gamma   89.99294731
_symmetry_Int_Tables_number   1
_chemical_formula_structural   Nd10Se19
_chemical_formula_sum   'Nd20 Se38'
_cell_volume   1487.38751198
_cell_formula_units_Z   2
loop_
 _symmetry_equiv_pos_site_id
 _symmetry_equiv_pos_as_xyz
  1  'x, y, z'
loop_
 _atom_site_type_symbol
 _atom_site_label
 _atom_site_symmetry_multiplicity
 _atom_site_fract_x
 _atom_site_fract_y
 _atom_site_fract_z
 _atom_site_occupancy
  Nd  Nd0  1  0.86905000  0.32485300  0.89435100  1
  Nd  Nd1  1  0.87831000  0.12806800  0.09331600  1
  Nd  Nd2  1  0.87997200  0.92575300  0.29591100  1
  Nd  Nd3  1  0.86892100  0.72942900  0.49351800  1
  Nd  Nd4  1  0.13107900  0.27057100  0.50648200  1
  Nd  Nd5  1  0.12002800  0.07424700  0.70408900  1
  Nd  Nd6  1  0.12169000  0.87193200  0.90668400  1
  Nd  Nd7  1  0.13095000  0.67514700  0.10564900  1
  Nd  Nd8  1  0.13022500  0.47167700  0.30554300  1
  Nd  Nd9  1  0.38556400  0.14287300  0.09611100  1
  Nd  Nd10  1  0.36872800  0.33645700  0.89102800  1
  Nd  Nd11  1  0.38675800  0.94053200  0.29954500  1
  Nd  Nd12  1  0.36846000  0.72973800  0.50040700  1
  Nd  Nd13  1  0.37875500  0.53724100  0.69660900  1
  Nd  Nd14  1  0.63154000  0.27026200  0.49959300  1
  Nd  Nd15  1  0.61324200  0.05946800  0.70045500  1
  Nd  Nd16  1  0.61443600  0.85712700  0.90388900  1
  Nd  Nd17  1  0.63127200  0.66354300  0.10897200  1
  Nd  Nd18  1  0.62124500  0.46275900  0.30339100  1
  Nd  Nd19  1  0.86977500  0.52832300  0.69445700  1
  Se  Se0  1  0.87510200  0.84961500  0.64914500  1
  Se  Se1  1  0.87611000  0.64690400  0.85102000  1
  Se  Se2  1  0.89815400  0.44642300  0.05543100  1
  Se  Se3  1  0.86897800  0.24408400  0.62191100  1
  Se  Se4  1  0.87479800  0.03726600  0.82162800  1
  Se  Se5  1  0.89862500  0.05591000  0.44552000  1
  Se  Se6  1  0.87978600  0.63870400  0.22600100  1
  Se  Se7  1  0.88015800  0.44515800  0.42076500  1
  Se  Se8  1  0.12389000  0.35309600  0.14898000  1
  Se  Se9  1  0.12780500  0.15887000  0.97576800  1
  Se  Se10  1  0.10184600  0.55357700  0.94456900  1
  Se  Se11  1  0.12520200  0.96273400  0.17837200  1
  Se  Se12  1  0.12489800  0.15038500  0.35085500  1
  Se  Se13  1  0.13102200  0.75591600  0.37808900  1
  Se  Se14  1  0.11984200  0.55484200  0.57923500  1
  Se  Se15  1  0.10137500  0.94409000  0.55448000  1
  Se  Se16  1  0.12021400  0.36129600  0.77399900  1
  Se  Se17  1  0.34028700  0.65868800  0.84237300  1
  Se  Se18  1  0.37456800  0.24729300  0.62337300  1
  Se  Se19  1  0.33800800  0.84257500  0.65796900  1
  Se  Se20  1  0.38750900  0.45999700  0.03978400  1
  Se  Se21  1  0.36909500  0.04270900  0.82228300  1
  Se  Se22  1  0.35925300  0.25235100  0.25029200  1
  Se  Se23  1  0.37488700  0.84896800  0.02601600  1
  Se  Se24  1  0.38830800  0.03982000  0.45960100  1
  Se  Se25  1  0.37657300  0.64930900  0.22449800  1
  Se  Se26  1  0.37567500  0.44411500  0.42450400  1
  Se  Se27  1  0.64074700  0.74764900  0.74970800  1
  Se  Se28  1  0.62511300  0.15103200  0.97398400  1
  Se  Se29  1  0.61249100  0.54000300  0.96021600  1
  Se  Se30  1  0.63090500  0.95729100  0.17771700  1
  Se  Se31  1  0.65971300  0.34131200  0.15762700  1
  Se  Se32  1  0.66199200  0.15742500  0.34203100  1
  Se  Se33  1  0.61169200  0.96018000  0.54039900  1
  Se  Se34  1  0.62543200  0.75270700  0.37662700  1
  Se  Se35  1  0.62432500  0.55588500  0.57549600  1
  Se  Se36  1  0.62342700  0.35069100  0.77550200  1
  Se  Se37  1  0.87219500  0.84113000  0.02423200  1
loop_
_geom_bond_atom_site_label_1
_geom_bond_atom_site_label_2
_geom_bond_distance
_geom_bond_site_symmetry_2
Nd0 Se28 3.000208 1_555
Nd0 Se36 3.033237 1_555
Nd0 Se9 3.063434 1_655
Nd0 Se10 3.080094 1_655
Nd0 Se4 3.082471 1_555
Nd0 Se16 3.092496 1_655
Nd0 Se1 3.153134 1_555
Nd0 Se29 3.225750 1_555
Nd0 Se2 3.263132 1_556
Nd1 Se31 2.999993 1_555
Nd1 Se11 3.025776 1_645
Nd1 Se9 3.040201 1_654
Nd1 Se37 3.046145 1_545
Nd1 Se30 3.048769 1_545
Nd1 Se28 3.081267 1_554
Nd1 Se2 3.100215 1_555
Nd1 Se8 3.157844 1_655
Nd2 Se32 2.999283 1_565
Nd2 Se11 3.021162 1_655
Nd2 Se13 3.044366 1_655
Nd2 Se30 3.047857 1_555
Nd2 Se6 3.053560 1_555
Nd2 Se34 3.066807 1_555
Nd2 Se5 3.091545 1_565
Nd2 Se12 3.147085 1_665
Nd3 Se34 2.992838 1_555
Nd3 Se35 3.024061 1_555
Nd3 Se7 3.055522 1_555
Nd3 Se15 3.056623 1_655
Nd3 Se13 3.082385 1_655
Nd3 Se14 3.100406 1_655
Nd3 Se0 3.154121 1_555
Nd3 Se33 3.206713 1_555
Nd3 Se5 3.224407 1_565
Nd4 Se18 2.992838 1_555
Nd4 Se26 3.024061 1_555
Nd4 Se14 3.055522 1_555
Nd4 Se5 3.056623 1_455
Nd4 Se3 3.082385 1_455
Nd4 Se7 3.100406 1_455
Nd4 Se12 3.154121 1_555
Nd4 Se24 3.206713 1_555
Nd4 Se15 3.224407 1_545
Nd5 Se19 2.999283 1_545
Nd5 Se4 3.021162 1_455
Nd5 Se3 3.044366 1_455
Nd5 Se21 3.047857 1_555
Nd5 Se16 3.053560 1_555
Nd5 Se18 3.066807 1_555
Nd5 Se15 3.091545 1_545
Nd5 Se0 3.147085 1_445
Nd6 Se17 2.999993 1_555
Nd6 Se4 3.025776 1_465
Nd6 Se37 3.040201 1_456
Nd6 Se9 3.046145 1_565
Nd6 Se21 3.048769 1_565
Nd6 Se23 3.081267 1_556
Nd6 Se10 3.100215 1_555
Nd6 Se1 3.157844 1_455
Nd7 Se23 3.000208 1_555
Nd7 Se25 3.033237 1_555
Nd7 Se37 3.063434 1_455
Nd7 Se2 3.080094 1_455
Nd7 Se11 3.082471 1_555
Nd7 Se6 3.092496 1_455
Nd7 Se8 3.153134 1_555
Nd7 Se20 3.225750 1_555
Nd7 Se10 3.263132 1_554
Nd8 Se6 3.002776 1_455
Nd8 Se7 3.009140 1_455
Nd8 Se22 3.028448 1_555
Nd8 Se26 3.034912 1_555
Nd8 Se25 3.046346 1_555
Nd8 Se13 3.052037 1_555
Nd8 Se12 3.154927 1_555
Nd8 Se8 3.164709 1_555
Nd9 Se28 3.037882 1_554
Nd9 Se30 3.087882 1_545
Nd9 Se22 3.098382 1_555
Nd9 Se23 3.115431 1_545
Nd9 Se9 3.118247 1_554
Nd9 Se8 3.136288 1_555
Nd9 Se11 3.150056 1_545
Nd9 Se20 3.174679 1_555
Nd9 Se31 3.197900 1_555
Nd10 Se16 3.024268 1_555
Nd10 Se36 3.034447 1_555
Nd10 Se9 3.050301 1_555
Nd10 Se20 3.050974 1_556
Nd10 Se21 3.101716 1_555
Nd10 Se29 3.111449 1_555
Nd10 Se28 3.161052 1_555
Nd10 Se17 3.188143 1_555
Nd10 Se10 3.213072 1_555
Nd11 Se34 3.023070 1_555
Nd11 Se30 3.060985 1_555
Nd11 Se22 3.096148 1_565
Nd11 Se13 3.114010 1_555
Nd11 Se12 3.125611 1_565
Nd11 Se25 3.134461 1_555
Nd11 Se11 3.153872 1_555
Nd11 Se24 3.162257 1_565
Nd11 Se32 3.200683 1_565
Nd12 Se14 3.025162 1_555
Nd12 Se35 3.029666 1_555
Nd12 Se24 3.035941 1_565
Nd12 Se13 3.036270 1_555
Nd12 Se33 3.092527 1_555
Nd12 Se26 3.093974 1_555
Nd12 Se34 3.162588 1_555
Nd12 Se19 3.171821 1_555
Nd12 Se15 3.200489 1_555
Nd13 Se19 2.997795 1_555
Nd13 Se17 3.004247 1_555
Nd13 Se35 3.059687 1_555
Nd13 Se36 3.065160 1_555
Nd13 Se16 3.075431 1_555
Nd13 Se14 3.085644 1_555
Nd13 Se18 3.106892 1_555
Nd13 Se27 3.141413 1_555
Nd14 Se7 3.025162 1_555
Nd14 Se26 3.029666 1_555
Nd14 Se33 3.035941 1_545
Nd14 Se3 3.036270 1_555
Nd14 Se24 3.092527 1_555
Nd14 Se35 3.093974 1_555
Nd14 Se18 3.162588 1_555
Nd14 Se32 3.171821 1_555
Nd14 Se5 3.200489 1_555
Nd15 Se18 3.023070 1_555
Nd15 Se21 3.060985 1_555
Nd15 Se27 3.096148 1_545
Nd15 Se3 3.114010 1_555
Nd15 Se0 3.125611 1_545
Nd15 Se36 3.134461 1_555
Nd15 Se4 3.153872 1_555
Nd15 Se33 3.162257 1_545
Nd15 Se19 3.200683 1_545
Nd16 Se23 3.037882 1_556
Nd16 Se21 3.087882 1_565
Nd16 Se27 3.098382 1_555
Nd16 Se28 3.115431 1_565
Nd16 Se37 3.118247 1_556
Nd16 Se1 3.136288 1_555
Nd16 Se4 3.150056 1_565
Nd16 Se29 3.174679 1_555
Nd16 Se17 3.197900 1_555
Nd17 Se6 3.024268 1_555
Nd17 Se25 3.034447 1_555
Nd17 Se37 3.050301 1_555
Nd17 Se29 3.050974 1_554
Nd17 Se30 3.101716 1_555
Nd17 Se20 3.111449 1_555
Nd17 Se23 3.161052 1_555
Nd17 Se31 3.188143 1_555
Nd17 Se2 3.213072 1_555
Nd18 Se32 2.997795 1_555
Nd18 Se31 3.004247 1_555
Nd18 Se26 3.059687 1_555
Nd18 Se25 3.065160 1_555
Nd18 Se6 3.075431 1_555
Nd18 Se7 3.085644 1_555
Nd18 Se34 3.106892 1_555
Nd18 Se22 3.141413 1_555
Nd19 Se16 3.002776 1_655
Nd19 Se14 3.009140 1_655
Nd19 Se27 3.028448 1_555
Nd19 Se35 3.034912 1_555
Nd19 Se36 3.046346 1_555
Nd19 Se3 3.052037 1_555
Nd19 Se0 3.154927 1_555
Nd19 Se1 3.164709 1_555
Se0 Se15 2.729725 1_655
Se0 Se27 2.870179 1_555
Se0 Se33 3.162660 1_555
Se0 Se4 3.724161 1_565
Se0 Se14 3.729366 1_655
Se0 Se19 3.869253 1_655
Se1 Se10 2.710298 1_655
Se1 Se27 2.881851 1_555
Se1 Se29 3.157730 1_555
Se1 Se16 3.712426 1_655
Se1 Se4 3.742516 1_565
Se1 Se17 3.880650 1_655
Se2 Se8 2.710298 1_655
Se2 Se31 2.923001 1_555
Se2 Se29 3.097742 1_554
Se2 Se9 3.682102 1_654
Se3 Se35 3.690047 1_555
Se3 Se36 3.691667 1_555
Se4 Se9 3.779193 1_655
Se6 Se8 3.712426 1_655
Se10 Se2 2.855023 1_456
Se10 Se17 2.923001 1_555
Se10 Se20 3.097742 1_556
Se10 Se37 3.682102 1_456
Se11 Se22 3.658689 1_565
Se11 Se23 3.713301 1_555
Se11 Se12 3.724161 1_565
Se11 Se25 3.732474 1_555
Se11 Se8 3.742516 1_565
Se11 Se37 3.779193 1_455
Se11 Se6 3.792098 1_455
Se12 Se5 2.729725 1_455
Se12 Se22 2.870179 1_555
Se12 Se24 3.162660 1_555
Se12 Se7 3.729366 1_455
Se12 Se32 3.869253 1_455
Se13 Se26 3.690047 1_555
Se13 Se25 3.691667 1_555
Se13 Se5 3.695464 1_465
Se13 Se7 3.696720 1_455
Se13 Se6 3.727949 1_455
Se14 Se19 3.627765 1_555
Se14 Se18 3.696387 1_555
Se14 Se3 3.696720 1_455
Se14 Se7 3.746922 1_455
Se14 Se26 3.767988 1_555
Se15 Se5 2.840933 1_465
Se15 Se19 2.918069 1_555
Se15 Se24 3.107445 1_565
Se15 Se3 3.695464 1_465
Se16 Se17 3.630153 1_555
Se16 Se18 3.711123 1_555
Se16 Se3 3.727949 1_455
Se16 Se21 3.768848 1_555
Se16 Se4 3.792098 1_455
Se17 Se27 3.155583 1_555
Se17 Se29 3.347781 1_555
Se17 Se21 3.672480 1_565
Se17 Se19 3.838087 1_555
Se18 Se36 3.677939 1_555
Se18 Se24 3.684544 1_555
Se18 Se35 3.695844 1_555
Se19 Se27 3.176957 1_555
Se19 Se33 3.348924 1_555
Se19 Se21 3.662542 1_565
Se20 Se29 2.505884 1_554
Se20 Se8 3.157730 1_555
Se20 Se31 3.347781 1_555
Se20 Se23 3.705304 1_555
Se21 Se9 3.698118 1_555
Se21 Se36 3.708429 1_555
Se21 Se28 3.719335 1_555
Se22 Se8 2.881851 1_555
Se22 Se31 3.155583 1_555
Se22 Se32 3.176957 1_555
Se23 Se28 3.667856 1_564
Se23 Se9 3.703317 1_564
Se23 Se30 3.719335 1_555
Se24 Se33 2.509037 1_545
Se24 Se32 3.348924 1_555
Se25 Se34 3.677939 1_555
Se25 Se30 3.708429 1_555
Se26 Se35 3.683864 1_555
Se26 Se34 3.695844 1_555
Se27 Se4 3.658689 1_565
Se28 Se37 3.703317 1_546
Se28 Se29 3.705304 1_555
Se28 Se4 3.713301 1_555
Se30 Se32 3.662542 1_565
Se30 Se31 3.672480 1_565
Se30 Se37 3.698118 1_555
Se30 Se6 3.768848 1_555
Se31 Se6 3.630153 1_555
Se31 Se32 3.838087 1_555
Se31 Se8 3.880650 1_655
Se32 Se5 2.918069 1_555
Se32 Se7 3.627765 1_555
Se33 Se5 3.107445 1_565
Se33 Se34 3.684544 1_555
Se34 Se7 3.696387 1_555
Se34 Se6 3.711123 1_555
Se35 Se7 3.767988 1_555
Se36 Se4 3.732474 1_555
Se37 Se9 3.794621 1_664
