# generated using pymatgen
data_U11S20
_symmetry_space_group_name_H-M   'P 1'
_cell_length_a   6.65184500
_cell_length_b   6.65184500
_cell_length_c   20.37444900
_cell_angle_alpha   90.00000000
_cell_angle_beta   90.00000000
_cell_angle_gamma   90.00000000
_symmetry_Int_Tables_number   1
_chemical_formula_structural   U11S20
_chemical_formula_sum   'U22 S40'
_cell_volume   901.50909867
_cell_formula_units_Z   2
loop_
 _symmetry_equiv_pos_site_id
 _symmetry_equiv_pos_as_xyz
  1  'x, y, z'
loop_
 _atom_site_type_symbol
 _atom_site_label
 _atom_site_symmetry_multiplicity
 _atom_site_fract_x
 _atom_site_fract_y
 _atom_site_fract_z
 _atom_site_occupancy
  U  U0  1  0.50000000  0.50000000  0.95839200  1
  U  U1  1  0.55687200  0.24399400  0.64814500  1
  U  U2  1  0.80812600  0.19705200  0.79505800  1
  U  U3  1  0.19187400  0.80294800  0.79505800  1
  U  U4  1  0.44312800  0.75600600  0.64814500  1
  U  U5  1  0.24399400  0.44312800  0.64814500  1
  U  U6  1  0.19705200  0.19187400  0.79505800  1
  U  U7  1  0.80294800  0.80812600  0.79505800  1
  U  U8  1  0.75600600  0.55687200  0.64814500  1
  U  U9  1  0.00000000  0.50000000  0.74886300  1
  U  U10  1  0.50000000  0.00000000  0.74886300  1
  U  U11  1  0.00000000  0.00000000  0.45839200  1
  U  U12  1  0.74399400  0.05687200  0.14814500  1
  U  U13  1  0.69705200  0.30812600  0.29505800  1
  U  U14  1  0.30812600  0.30294800  0.29505800  1
  U  U15  1  0.05687200  0.25600600  0.14814500  1
  U  U16  1  0.30294800  0.69187400  0.29505800  1
  U  U17  1  0.25600600  0.94312800  0.14814500  1
  U  U18  1  0.69187400  0.69705200  0.29505800  1
  U  U19  1  0.94312800  0.74399400  0.14814500  1
  U  U20  1  0.50000000  0.00000000  0.24886300  1
  U  U21  1  0.00000000  0.50000000  0.24886300  1
  S  S0  1  0.22586000  0.49786700  0.86809300  1
  S  S1  1  0.00749300  0.25573500  0.91254500  1
  S  S2  1  0.50213300  0.22586000  0.86809300  1
  S  S3  1  0.74426500  0.00749300  0.91254500  1
  S  S4  1  0.25573500  0.99250700  0.91254500  1
  S  S5  1  0.49786700  0.77414000  0.86809300  1
  S  S6  1  0.99250700  0.74426500  0.91254500  1
  S  S7  1  0.77414000  0.50213300  0.86809300  1
  S  S8  1  0.23826600  0.06435600  0.64764200  1
  S  S9  1  0.70841000  0.38458200  0.53108100  1
  S  S10  1  0.38458200  0.29159000  0.53108100  1
  S  S11  1  0.06435600  0.76173400  0.64764200  1
  S  S12  1  0.93564400  0.23826600  0.64764200  1
  S  S13  1  0.61541800  0.70841000  0.53108100  1
  S  S14  1  0.29159000  0.61541800  0.53108100  1
  S  S15  1  0.76173400  0.93564400  0.64764200  1
  S  S16  1  0.04876500  0.31040500  0.51735700  1
  S  S17  1  0.68959500  0.04876500  0.51735700  1
  S  S18  1  0.95123500  0.68959500  0.51735700  1
  S  S19  1  0.31040500  0.95123500  0.51735700  1
  S  S20  1  0.72586000  0.00213300  0.36809300  1
  S  S21  1  0.24426500  0.49250700  0.41254500  1
  S  S22  1  0.00213300  0.27414000  0.36809300  1
  S  S23  1  0.49250700  0.75573500  0.41254500  1
  S  S24  1  0.50749300  0.24426500  0.41254500  1
  S  S25  1  0.99786700  0.72586000  0.36809300  1
  S  S26  1  0.75573500  0.50749300  0.41254500  1
  S  S27  1  0.27414000  0.99786700  0.36809300  1
  S  S28  1  0.73826600  0.43564400  0.14764200  1
  S  S29  1  0.20841000  0.11541800  0.03108100  1
  S  S30  1  0.43564400  0.26173400  0.14764200  1
  S  S31  1  0.88458200  0.20841000  0.03108100  1
  S  S32  1  0.79159000  0.88458200  0.03108100  1
  S  S33  1  0.11541800  0.79159000  0.03108100  1
  S  S34  1  0.56435600  0.73826600  0.14764200  1
  S  S35  1  0.26173400  0.56435600  0.14764200  1
  S  S36  1  0.54876500  0.18959500  0.01735700  1
  S  S37  1  0.18959500  0.45123500  0.01735700  1
  S  S38  1  0.45123500  0.81040500  0.01735700  1
  S  S39  1  0.81040500  0.54876500  0.01735700  1
loop_
_geom_bond_atom_site_label_1
_geom_bond_atom_site_label_2
_geom_bond_distance
_geom_bond_site_symmetry_2
U1 U5 2.466992 1_555
U1 U8 2.466992 1_555
U1 U10 2.643536 1_555
U1 U2 3.442445 1_555
U2 U9 2.564316 1_655
U2 U6 2.587305 1_655
U2 U7 2.587305 1_545
U3 U9 2.564316 1_555
U3 U7 2.587305 1_455
U3 U6 2.587305 1_565
U3 U4 3.442445 1_555
U4 U5 2.466992 1_555
U4 U8 2.466992 1_555
U5 U9 2.643536 1_555
U5 U6 3.442445 1_555
U6 U9 2.608607 1_555
U7 U9 2.608607 1_655
U7 U8 3.442445 1_555
U8 U9 2.643536 1_655
U10 U7 2.564316 1_545
U10 U6 2.564316 1_555
U10 U3 2.608607 1_545
U10 U2 2.608607 1_555
U10 U4 2.643536 1_545
U12 U15 2.466992 1_655
U12 U19 2.466992 1_545
U12 U20 2.643536 1_555
U12 U13 3.442445 1_555
U13 U21 2.564316 1_655
U13 U14 2.587305 1_555
U13 U18 2.587305 1_555
U13 U20 2.608607 1_555
U14 U20 2.564316 1_555
U14 U16 2.587305 1_555
U14 U21 2.608607 1_555
U14 U15 3.442445 1_555
U15 U17 2.466992 1_545
U15 U21 2.643536 1_555
U16 U21 2.564316 1_555
U16 U18 2.587305 1_555
U16 U20 2.608607 1_565
U16 U17 3.442445 1_555
U17 U19 2.466992 1_455
U17 U20 2.643536 1_565
U18 U20 2.564316 1_565
U18 U21 2.608607 1_655
U18 U19 3.442445 1_555
U19 U21 2.643536 1_655
S0 S1 2.350374 1_555
S0 S6 2.432283 1_455
S0 U3 2.526591 1_555
S0 U6 2.528623 1_555
S0 S2 2.578949 1_555
S0 S5 2.578949 1_555
S0 U0 2.590429 1_555
S0 U9 2.856326 1_555
S1 S3 2.406765 1_455
S1 S4 2.406765 1_545
S1 S7 2.432283 1_455
S1 S31 2.569101 1_456
S1 U6 2.738671 1_555
S1 U2 2.764241 1_455
S1 S37 2.778258 1_556
S1 S29 2.913770 1_556
S2 S3 2.350374 1_555
S2 S4 2.432283 1_545
S2 U6 2.526591 1_555
S2 U2 2.528623 1_555
S2 S7 2.578949 1_555
S2 U0 2.590429 1_555
S2 U10 2.856326 1_555
S3 S6 2.406765 1_545
S3 S5 2.432283 1_545
S3 S32 2.569101 1_546
S3 U2 2.738671 1_555
S3 U7 2.764241 1_545
S3 S36 2.778258 1_556
S3 S31 2.913770 1_556
S4 S5 2.350374 1_555
S4 S6 2.406765 1_455
S4 U3 2.738671 1_555
S4 U6 2.764241 1_565
S5 U7 2.526591 1_555
S5 U3 2.528623 1_555
S5 S7 2.578949 1_555
S5 U0 2.590429 1_555
S5 U10 2.856326 1_565
S6 S7 2.350374 1_555
S6 U7 2.738671 1_555
S6 U3 2.764241 1_655
S7 U2 2.526591 1_555
S7 U7 2.528623 1_555
S7 U0 2.590429 1_555
S7 U9 2.856326 1_655
S8 U1 2.432993 1_555
S8 U4 2.462535 1_545
S8 U5 2.519842 1_555
S8 U10 2.732684 1_555
S8 U6 3.133015 1_555
S9 U8 2.665038 1_555
S9 U1 2.753070 1_555
S10 S14 2.241110 1_555
S10 S9 2.241110 1_555
S10 S16 2.254712 1_555
S10 S19 2.333943 1_545
S10 S24 2.569101 1_555
S10 S17 2.608371 1_555
S10 U1 2.665038 1_555
S10 U5 2.753070 1_555
S10 S21 2.913770 1_555
S10 S8 2.978583 1_555
S11 S8 2.321720 1_565
S11 S15 2.321720 1_455
S11 U5 2.432993 1_555
S11 U8 2.462535 1_455
S11 U4 2.519842 1_555
S11 U9 2.732684 1_555
S11 S18 2.800492 1_455
S11 S14 2.978583 1_555
S11 U3 3.133015 1_555
S12 S8 2.321720 1_655
S12 S15 2.321720 1_545
S12 U8 2.432993 1_555
S12 U5 2.462535 1_655
S12 U1 2.519842 1_555
S12 U9 2.732684 1_655
S12 S16 2.800492 1_655
S12 S9 2.978583 1_555
S12 U2 3.133015 1_555
S13 S14 2.241110 1_555
S13 S9 2.241110 1_555
S13 S18 2.254712 1_555
S13 S17 2.333943 1_565
S13 S23 2.569101 1_555
S13 S19 2.608371 1_555
S13 U4 2.665038 1_555
S13 U8 2.753070 1_555
S13 S26 2.913770 1_555
S13 S15 2.978583 1_555
S14 S19 2.254712 1_555
S14 S18 2.333943 1_455
S14 S21 2.569101 1_555
S14 S16 2.608371 1_555
S14 U5 2.665038 1_555
S14 U4 2.753070 1_555
S14 S23 2.913770 1_555
S15 U4 2.432993 1_555
S15 U1 2.462535 1_565
S15 U8 2.519842 1_555
S15 U10 2.732684 1_565
S15 S17 2.800492 1_565
S15 U7 3.133015 1_555
S16 S9 2.333943 1_455
S16 U11 2.410766 1_555
S16 S18 2.604409 1_455
S16 S21 2.778258 1_555
S17 S9 2.254712 1_555
S17 U11 2.410766 1_655
S17 S19 2.604409 1_545
S17 S24 2.778258 1_555
S18 U11 2.410766 1_665
S18 S9 2.608371 1_555
S18 S26 2.778258 1_555
S19 U11 2.410766 1_565
S19 S23 2.778258 1_555
S19 S8 2.800492 1_565
S20 S24 2.350374 1_555
S20 S23 2.432283 1_545
S20 U18 2.526591 1_545
S20 U13 2.528623 1_555
S20 S25 2.578949 1_545
S20 S22 2.578949 1_655
S20 U11 2.590429 1_655
S20 U20 2.856326 1_555
S21 S22 2.350374 1_555
S21 S23 2.406765 1_555
S21 S24 2.406765 1_555
S21 S25 2.432283 1_455
S21 U14 2.738671 1_555
S21 U16 2.764241 1_555
S22 S26 2.432283 1_455
S22 U13 2.526591 1_455
S22 U14 2.528623 1_555
S22 S27 2.578949 1_545
S22 U11 2.590429 1_555
S22 U21 2.856326 1_555
S23 S27 2.350374 1_555
S23 S26 2.406765 1_555
S23 U16 2.738671 1_555
S23 U18 2.764241 1_555
S24 S26 2.406765 1_555
S24 S27 2.432283 1_545
S24 U13 2.738671 1_555
S24 U14 2.764241 1_555
S24 S9 2.913770 1_555
S25 S26 2.350374 1_555
S25 U16 2.526591 1_655
S25 U18 2.528623 1_555
S25 S27 2.578949 1_655
S25 U11 2.590429 1_665
S25 U21 2.856326 1_655
S26 S9 2.569101 1_555
S26 U18 2.738671 1_555
S26 U13 2.764241 1_555
S27 U14 2.526591 1_565
S27 U16 2.528623 1_555
S27 U11 2.590429 1_565
S27 U20 2.856326 1_565
S28 S34 2.321720 1_555
S28 S30 2.321720 1_555
S28 U15 2.432993 1_655
S28 U19 2.462535 1_555
S28 U12 2.519842 1_555
S28 U21 2.732684 1_655
S28 S39 2.800492 1_555
S28 S31 2.978583 1_555
S28 U13 3.133015 1_555
S29 S33 2.241110 1_545
S29 S31 2.241110 1_455
S29 S37 2.254712 1_555
S29 S36 2.333943 1_555
S29 S4 2.569101 1_544
S29 S38 2.608371 1_545
S29 U17 2.665038 1_545
S29 U15 2.753070 1_555
S29 S30 2.978583 1_555
S30 S35 2.321720 1_555
S30 U17 2.432993 1_545
S30 U12 2.462535 1_555
S30 U15 2.519842 1_555
S30 U20 2.732684 1_555
S30 S36 2.800492 1_555
S30 U14 3.133015 1_555
S31 S32 2.241110 1_545
S31 S36 2.254712 1_555
S31 S39 2.333943 1_555
S31 S37 2.608371 1_655
S31 U15 2.665038 1_655
S31 U12 2.753070 1_555
S32 S33 2.241110 1_655
S32 S39 2.254712 1_555
S32 S38 2.333943 1_555
S32 S36 2.608371 1_565
S32 U12 2.665038 1_565
S32 U19 2.753070 1_555
S32 S6 2.913770 1_554
S32 S34 2.978583 1_555
S33 S38 2.254712 1_555
S33 S37 2.333943 1_555
S33 S6 2.569101 1_454
S33 S39 2.608371 1_455
S33 U19 2.665038 1_455
S33 U17 2.753070 1_555
S33 S4 2.913770 1_554
S33 S35 2.978583 1_555
S34 S35 2.321720 1_555
S34 U12 2.432993 1_565
S34 U17 2.462535 1_555
S34 U19 2.519842 1_555
S34 U20 2.732684 1_565
S34 S38 2.800492 1_555
S34 U18 3.133015 1_555
S35 U19 2.432993 1_455
S35 U15 2.462535 1_555
S35 U17 2.519842 1_555
S35 U21 2.732684 1_555
S35 S37 2.800492 1_555
S35 U16 3.133015 1_555
S36 U0 2.410766 1_554
S36 S38 2.604409 1_545
S37 U0 2.410766 1_554
S37 S39 2.604409 1_455
S38 U0 2.410766 1_554
S38 S4 2.778258 1_554
S39 U0 2.410766 1_554
S39 S6 2.778258 1_554
