# generated using pymatgen
data_ZrBeCd
_symmetry_space_group_name_H-M   'P 1'
_cell_length_a   4.54600647
_cell_length_b   4.54600647
_cell_length_c   4.54600647
_cell_angle_alpha   60.00000000
_cell_angle_beta   60.00000000
_cell_angle_gamma   60.00000000
_symmetry_Int_Tables_number   1
_chemical_formula_structural   ZrBeCd
_chemical_formula_sum   'Zr1 Be1 Cd1'
_cell_volume   66.43166688
_cell_formula_units_Z   1
loop_
 _symmetry_equiv_pos_site_id
 _symmetry_equiv_pos_as_xyz
  1  'x, y, z'
loop_
 _atom_site_type_symbol
 _atom_site_label
 _atom_site_symmetry_multiplicity
 _atom_site_fract_x
 _atom_site_fract_y
 _atom_site_fract_z
 _atom_site_occupancy
  Zr  Zr0  1  0.25000000  0.25000000  0.25000000  1
  Be  Be0  1  0.00000000  0.00000000  0.00000000  1
  Cd  Cd0  1  0.50000000  0.50000000  0.50000000  1
loop_
_geom_bond_atom_site_label_1
_geom_bond_atom_site_label_2
_geom_bond_distance
_geom_bond_site_symmetry_2
Be0 Zr0 2.783849 1_555
Be0 Zr0 2.783849 1_455
Be0 Zr0 2.783849 1_545
Be0 Zr0 2.783849 1_554
Be0 Cd0 3.214512 1_545
Be0 Cd0 3.214512 1_455
Be0 Cd0 3.214512 1_554
Be0 Cd0 3.214512 1_544
Be0 Cd0 3.214512 1_445
Be0 Cd0 3.214512 1_454
Cd0 Zr0 2.783849 1_555
Cd0 Zr0 2.783849 1_556
Cd0 Zr0 2.783849 1_655
Cd0 Zr0 2.783849 1_565
