# generated using pymatgen
data_Nb40(NO)17
_symmetry_space_group_name_H-M   'P 1'
_cell_length_a   3.18873076
_cell_length_b   3.18873097
_cell_length_c   124.78800387
_cell_angle_alpha   59.26465023
_cell_angle_beta   59.26464801
_cell_angle_gamma   59.99996683
_symmetry_Int_Tables_number   1
_chemical_formula_structural   Nb40(NO)17
_chemical_formula_sum   'Nb40 N17 O17'
_cell_volume   887.10669412
_cell_formula_units_Z   1
loop_
 _symmetry_equiv_pos_site_id
 _symmetry_equiv_pos_as_xyz
  1  'x, y, z'
loop_
 _atom_site_type_symbol
 _atom_site_label
 _atom_site_symmetry_multiplicity
 _atom_site_fract_x
 _atom_site_fract_y
 _atom_site_fract_z
 _atom_site_occupancy
  Nb  Nb0  1  0.99849573  0.99849573  0.00011267  1
  Nb  Nb1  1  0.01421460  0.01421460  0.02393395  1
  Nb  Nb2  1  0.98498788  0.98498788  0.05112577  1
  Nb  Nb3  1  0.98629940  0.98629940  0.10102709  1
  Nb  Nb4  1  0.01437982  0.01437982  0.07392224  1
  Nb  Nb5  1  0.01422741  0.01422741  0.12393318  1
  Nb  Nb6  1  0.98639232  0.98639232  0.15102067  1
  Nb  Nb7  1  0.01384997  0.01384997  0.17396099  1
  Nb  Nb8  1  0.98672176  0.98672176  0.20099590  1
  Nb  Nb9  1  0.01318708  0.01318708  0.22401095  1
  Nb  Nb10  1  0.01688634  0.01688634  0.27373349  1
  Nb  Nb11  1  0.98492858  0.98492858  0.25113041  1
  Nb  Nb12  1  0.00042427  0.00042427  0.29996839  1
  Nb  Nb13  1  0.00115940  0.00115940  0.32491298  1
  Nb  Nb14  1  0.00066491  0.00066491  0.34995003  1
  Nb  Nb15  1  -0.00004986  -0.00004986  0.37500357  1
  Nb  Nb16  1  0.99979706  0.99979706  0.40001531  1
  Nb  Nb17  1  0.99951345  0.99951345  0.42503667  1
  Nb  Nb18  1  0.99977367  0.99977367  0.45001741  1
  Nb  Nb19  1  0.00024073  0.00024073  0.47498186  1
  Nb  Nb20  1  0.99944820  0.99944820  0.52504138  1
  Nb  Nb21  1  0.00000333  0.00000333  0.49999983  1
  Nb  Nb22  1  0.99753060  0.99753060  0.55018527  1
  Nb  Nb23  1  0.98220751  0.98220751  0.57633444  1
  Nb  Nb24  1  0.00053076  0.00053076  0.59996031  1
  Nb  Nb25  1  0.99802684  0.99802684  0.62514809  1
  Nb  Nb26  1  0.00011135  0.00011135  0.64999175  1
  Nb  Nb27  1  -0.00001605  -0.00001605  0.67500138  1
  Nb  Nb28  1  0.00055087  0.00055087  0.69995880  1
  Nb  Nb29  1  0.99983173  0.99983173  0.72501254  1
  Nb  Nb30  1  0.00014594  0.00014594  0.74998879  1
  Nb  Nb31  1  -0.00004015  -0.00004015  0.77500344  1
  Nb  Nb32  1  0.99984057  0.99984057  0.80001175  1
  Nb  Nb33  1  -0.00002226  -0.00002226  0.82500184  1
  Nb  Nb34  1  0.00059331  0.00059331  0.84995480  1
  Nb  Nb35  1  0.99945713  0.99945713  0.87504118  1
  Nb  Nb36  1  0.00004396  0.00004396  0.89999748  1
  Nb  Nb37  1  0.99725731  0.99725731  0.95020590  1
  Nb  Nb38  1  0.00132483  0.00132483  0.92490065  1
  Nb  Nb39  1  0.99872926  0.99872926  0.97509537  1
  N  N0  1  0.50474623  0.50474623  0.58714384  1
  N  N1  1  0.50327726  0.50327726  0.61225429  1
  N  N2  1  0.50002159  0.50002159  0.63749816  1
  N  N3  1  0.50003601  0.50003601  0.66249714  1
  N  N4  1  0.50008309  0.50008309  0.68749370  1
  N  N5  1  0.49986517  0.49986517  0.71251001  1
  N  N6  1  0.50000987  0.50000987  0.73749960  1
  N  N7  1  0.50003789  0.50003789  0.76249704  1
  N  N8  1  0.49996096  0.49996096  0.78750283  1
  N  N9  1  0.49980172  0.49980172  0.81251486  1
  N  N10  1  0.50019756  0.50019756  0.83748549  1
  N  N11  1  0.49969813  0.49969813  0.86252255  1
  N  N12  1  0.49985047  0.49985047  0.88751052  1
  N  N13  1  0.50016568  0.50016568  0.91248748  1
  N  N14  1  0.49997245  0.49997245  0.93750220  1
  N  N15  1  0.49753067  0.49753067  0.96268513  1
  N  N16  1  0.49514256  0.49514256  0.98786426  1
  O  O0  1  0.49970803  0.49970803  0.03752176  1
  O  O1  1  0.50007009  0.50007009  0.08749473  1
  O  O2  1  0.50017997  0.50017997  0.13748660  1
  O  O3  1  0.49994722  0.49994722  0.18750407  1
  O  O4  1  0.50031828  0.50031828  0.23747625  1
  O  O5  1  0.50424007  0.50424007  0.28718134  1
  O  O6  1  0.49622217  0.49622217  0.31278300  1
  O  O7  1  0.50083917  0.50083917  0.33743754  1
  O  O8  1  0.50028203  0.50028203  0.36247924  1
  O  O9  1  0.50030246  0.50030246  0.38747754  1
  O  O10  1  0.49976609  0.49976609  0.41251683  1
  O  O11  1  0.50006626  0.50006626  0.43749429  1
  O  O12  1  0.49991173  0.49991173  0.46250591  1
  O  O13  1  0.49977395  0.49977395  0.48751741  1
  O  O14  1  0.49981450  0.49981450  0.51251455  1
  O  O15  1  0.50181636  0.50181636  0.53736404  1
  O  O16  1  0.50469477  0.50469477  0.56214729  1
loop_
_geom_bond_atom_site_label_1
_geom_bond_atom_site_label_2
_geom_bond_distance
_geom_bond_site_symmetry_2
Nb0 Nb1 3.024612 1_565
Nb0 Nb1 3.024612 1_655
Nb0 Nb1 3.024655 1_665
Nb1 O0 2.294144 1_445
Nb1 O0 2.294149 1_455
Nb1 O0 2.294149 1_545
Nb2 O0 2.295107 1_665
Nb2 O0 2.295129 1_655
Nb2 O0 2.295129 1_565
Nb2 Nb4 2.943354 1_565
Nb2 Nb4 2.943354 1_655
Nb2 Nb4 2.943444 1_665
Nb3 O1 2.290813 1_655
Nb3 O1 2.290813 1_565
Nb3 O1 2.290830 1_665
Nb3 Nb5 2.951982 1_565
Nb3 Nb5 2.951983 1_655
Nb3 Nb5 2.952060 1_665
Nb4 O1 2.293212 1_455
Nb4 O1 2.293212 1_545
Nb4 O1 2.293256 1_445
Nb5 O2 2.292076 1_445
Nb5 O2 2.292085 1_455
Nb5 O2 2.292085 1_545
Nb6 O2 2.290907 1_665
Nb6 O2 2.290928 1_655
Nb6 O2 2.290928 1_565
Nb6 Nb7 2.954703 1_565
Nb6 Nb7 2.954703 1_655
Nb6 Nb7 2.954708 1_665
Nb7 O3 2.291425 1_445
Nb7 O3 2.291480 1_455
Nb7 O3 2.291480 1_545
Nb8 O3 2.288382 1_665
Nb8 O3 2.288396 1_655
Nb8 O3 2.288396 1_565
Nb8 Nb9 2.960588 1_565
Nb8 Nb9 2.960588 1_655
Nb8 Nb9 2.960614 1_665
Nb9 O4 2.286782 1_445
Nb9 O4 2.286816 1_455
Nb9 O4 2.286816 1_545
Nb10 O5 2.285751 1_455
Nb10 O5 2.285751 1_545
Nb10 O5 2.285785 1_445
Nb10 Nb11 2.928200 1_545
Nb10 Nb11 2.928200 1_455
Nb10 Nb11 2.928224 1_445
Nb11 O4 2.298131 1_665
Nb11 O4 2.298147 1_655
Nb11 O4 2.298147 1_565
Nb12 O5 2.246880 1_555
Nb12 O5 2.246979 1_455
Nb12 O5 2.246979 1_545
Nb12 O6 2.248530 1_545
Nb12 O6 2.248530 1_455
Nb12 O6 2.248558 1_445
Nb13 O6 2.209632 1_555
Nb13 O6 2.209677 1_455
Nb13 O6 2.209677 1_545
Nb13 O7 2.231845 1_445
Nb13 O7 2.231914 1_545
Nb13 O7 2.231914 1_455
Nb14 O7 2.231193 1_455
Nb14 O7 2.231193 1_545
Nb14 O7 2.231226 1_555
Nb14 O8 2.232112 1_445
Nb14 O8 2.232178 1_545
Nb14 O8 2.232178 1_455
Nb15 O9 2.228976 1_445
Nb15 O9 2.229033 1_545
Nb15 O9 2.229033 1_455
Nb15 O8 2.231868 1_455
Nb15 O8 2.231868 1_545
Nb15 O8 2.231899 1_555
Nb16 O10 2.230562 1_655
Nb16 O10 2.230562 1_565
Nb16 O10 2.230615 1_555
Nb16 O9 2.232638 1_665
Nb16 O9 2.232646 1_565
Nb16 O9 2.232646 1_655
Nb17 O11 2.228065 1_655
Nb17 O11 2.228065 1_565
Nb17 O11 2.228128 1_555
Nb17 O10 2.231555 1_665
Nb17 O10 2.231656 1_565
Nb17 O10 2.231656 1_655
Nb18 O12 2.229811 1_655
Nb18 O12 2.229811 1_565
Nb18 O12 2.229896 1_555
Nb18 O11 2.231724 1_665
Nb18 O11 2.231852 1_565
Nb18 O11 2.231852 1_655
Nb19 O12 2.229075 1_555
Nb19 O12 2.229152 1_455
Nb19 O12 2.229152 1_545
Nb19 O13 2.232471 1_445
Nb19 O13 2.232540 1_545
Nb19 O13 2.232540 1_455
Nb20 O15 2.220426 1_555
Nb20 O15 2.220471 1_655
Nb20 O15 2.220471 1_565
Nb20 O14 2.232008 1_565
Nb20 O14 2.232008 1_655
Nb20 O14 2.232046 1_665
Nb21 O13 2.229489 1_455
Nb21 O13 2.229489 1_545
Nb21 O13 2.229503 1_555
Nb21 O14 2.231283 1_445
Nb21 O14 2.231355 1_545
Nb21 O14 2.231355 1_455
Nb22 O16 2.200336 1_655
Nb22 O16 2.200336 1_565
Nb22 O16 2.200378 1_555
Nb22 O15 2.248921 1_665
Nb22 O15 2.248923 1_565
Nb22 O15 2.248923 1_655
Nb23 O16 2.330627 1_665
Nb23 O16 2.330702 1_655
Nb23 O16 2.330702 1_565
N0 Nb23 2.138963 1_455
N0 Nb23 2.138963 1_545
N0 Nb23 2.138963 1_555
N0 Nb24 2.248614 1_555
N0 Nb24 2.248663 1_655
N0 Nb24 2.248663 1_565
N1 Nb24 2.218830 1_665
N1 Nb24 2.218848 1_565
N1 Nb24 2.218848 1_655
N1 Nb25 2.253114 1_445
N1 Nb25 2.253137 1_545
N1 Nb25 2.253137 1_455
N2 Nb25 2.221998 1_455
N2 Nb25 2.221998 1_545
N2 Nb25 2.222007 1_555
N2 Nb26 2.230096 1_555
N2 Nb26 2.230145 1_655
N2 Nb26 2.230145 1_565
N3 Nb27 2.230701 1_555
N3 Nb27 2.230751 1_655
N3 Nb27 2.230751 1_565
N3 Nb26 2.230799 1_565
N3 Nb26 2.230799 1_655
N3 Nb26 2.230802 1_665
N4 Nb28 2.228486 1_555
N4 Nb28 2.228523 1_655
N4 Nb28 2.228523 1_565
N4 Nb27 2.230056 1_565
N4 Nb27 2.230056 1_655
N4 Nb27 2.230058 1_665
N5 Nb29 2.230622 1_445
N5 Nb29 2.230645 1_545
N5 Nb29 2.230645 1_455
N5 Nb28 2.233410 1_665
N5 Nb28 2.233410 1_565
N5 Nb28 2.233410 1_655
N6 Nb29 2.229718 1_555
N6 Nb29 2.229777 1_455
N6 Nb29 2.229777 1_545
N6 Nb30 2.229867 1_655
N6 Nb30 2.229867 1_565
N6 Nb30 2.229902 1_555
N7 Nb31 2.230811 1_555
N7 Nb31 2.230881 1_655
N7 Nb31 2.230881 1_565
N7 Nb30 2.230940 1_665
N7 Nb30 2.230974 1_565
N7 Nb30 2.230974 1_655
N8 Nb31 2.230449 1_565
N8 Nb31 2.230449 1_655
N8 Nb31 2.230477 1_665
N8 Nb32 2.230994 1_445
N8 Nb32 2.231004 1_545
N8 Nb32 2.231004 1_455
N9 Nb33 2.229728 1_555
N9 Nb33 2.229765 1_655
N9 Nb33 2.229765 1_565
N9 Nb32 2.230645 1_555
N9 Nb32 2.230683 1_455
N9 Nb32 2.230683 1_545
N10 Nb34 2.228725 1_655
N10 Nb34 2.228725 1_565
N10 Nb34 2.228797 1_555
N10 Nb33 2.229542 1_665
N10 Nb33 2.229575 1_565
N10 Nb33 2.229575 1_655
N11 Nb35 2.231506 1_445
N11 Nb35 2.231577 1_545
N11 Nb35 2.231577 1_455
N11 Nb34 2.234303 1_665
N11 Nb34 2.234379 1_565
N11 Nb34 2.234379 1_655
N12 Nb35 2.228722 1_455
N12 Nb35 2.228722 1_545
N12 Nb35 2.228808 1_555
N12 Nb36 2.229649 1_555
N12 Nb36 2.229803 1_655
N12 Nb36 2.229803 1_565
N13 Nb38 2.225547 1_555
N13 Nb38 2.225576 1_655
N13 Nb38 2.225576 1_565
N13 Nb36 2.229905 1_565
N13 Nb36 2.229905 1_655
N13 Nb36 2.229964 1_665
N14 Nb38 2.236264 1_665
N14 Nb38 2.236296 1_565
N14 Nb38 2.236296 1_655
N14 Nb37 2.242125 1_445
N14 Nb37 2.242152 1_545
N14 Nb37 2.242152 1_455
N15 Nb39 2.225379 1_445
N15 Nb39 2.225412 1_545
N15 Nb39 2.225412 1_455
N15 Nb37 2.229311 1_455
N15 Nb37 2.229311 1_545
N15 Nb37 2.229315 1_555
N16 Nb0 2.216276 1_446
N16 Nb0 2.216286 1_546
N16 Nb0 2.216286 1_456
N16 Nb39 2.245891 1_555
N16 Nb39 2.245901 1_455
N16 Nb39 2.245901 1_545
