# generated using pymatgen
data_Ru(CO)4
_symmetry_space_group_name_H-M   'P 1'
_cell_length_a   8.58853855
_cell_length_b   8.58853855
_cell_length_c   8.58853855
_cell_angle_alpha   139.64790546
_cell_angle_beta   130.51560668
_cell_angle_gamma   65.68612291
_symmetry_Int_Tables_number   1
_chemical_formula_structural   Ru(CO)4
_chemical_formula_sum   'Ru2 C8 O8'
_cell_volume   307.33555822
_cell_formula_units_Z   2
loop_
 _symmetry_equiv_pos_site_id
 _symmetry_equiv_pos_as_xyz
  1  'x, y, z'
loop_
 _atom_site_type_symbol
 _atom_site_label
 _atom_site_symmetry_multiplicity
 _atom_site_fract_x
 _atom_site_fract_y
 _atom_site_fract_z
 _atom_site_occupancy
  Ru  Ru0  1  0.00000000  0.00000000  0.00000000  1
  Ru  Ru1  1  0.00000000  0.50000000  0.50000000  1
  C  C0  1  0.98910700  0.37682600  0.61228000  1
  C  C1  1  0.69748400  0.44378000  0.25370400  1
  C  C2  1  0.19007500  0.94378000  0.24629600  1
  C  C3  1  0.30251600  0.55622000  0.74629600  1
  C  C4  1  0.80992500  0.05622000  0.75370400  1
  C  C5  1  0.76454600  0.87682600  0.88772000  1
  C  C6  1  0.01089300  0.62317400  0.38772000  1
  C  C7  1  0.23545400  0.12317400  0.11228000  1
  O  O0  1  0.01679900  0.69620000  0.32060000  1
  O  O1  1  0.48266100  0.58983000  0.89283100  1
  O  O2  1  0.69699900  0.08983000  0.60716900  1
  O  O3  1  0.51733900  0.41017000  0.10716900  1
  O  O4  1  0.37560000  0.19620000  0.17940000  1
  O  O5  1  0.30300100  0.91017000  0.39283100  1
  O  O6  1  0.62440000  0.80380000  0.82060000  1
  O  O7  1  0.98320100  0.30380000  0.67940000  1
loop_
_geom_bond_atom_site_label_1
_geom_bond_atom_site_label_2
_geom_bond_distance
_geom_bond_site_symmetry_2
C0 O7 1.159092 1_555
C0 Ru1 1.952271 1_655
C1 O3 1.159772 1_555
C1 Ru1 1.947708 1_655
C2 O5 1.159772 1_555
C2 Ru0 1.947708 1_565
C3 O1 1.159772 1_555
C3 Ru1 1.947708 1_555
C4 O2 1.159772 1_555
C4 Ru0 1.947708 1_656
C5 O6 1.159092 1_555
C5 Ru0 1.952277 1_666
C6 O0 1.159092 1_555
C6 Ru1 1.952271 1_555
C7 O4 1.159092 1_555
C7 Ru0 1.952277 1_555
