# generated using pymatgen
data_Mn3(PO4)2
_symmetry_space_group_name_H-M   'P 1'
_cell_length_a   10.19757400
_cell_length_b   9.07919200
_cell_length_c   21.31811255
_cell_angle_alpha   80.88570824
_cell_angle_beta   90.00000000
_cell_angle_gamma   90.00000000
_symmetry_Int_Tables_number   1
_chemical_formula_structural   Mn3(PO4)2
_chemical_formula_sum   'Mn36 P24 O96'
_cell_volume   1948.83309758
_cell_formula_units_Z   12
loop_
 _symmetry_equiv_pos_site_id
 _symmetry_equiv_pos_as_xyz
  1  'x, y, z'
loop_
 _atom_site_type_symbol
 _atom_site_label
 _atom_site_symmetry_multiplicity
 _atom_site_fract_x
 _atom_site_fract_y
 _atom_site_fract_z
 _atom_site_occupancy
  Mn  Mn0  1  0.29568000  0.10064700  0.70355400  1
  Mn  Mn1  1  0.58414600  0.79270400  0.78324100  1
  Mn  Mn2  1  0.89440000  0.59983200  0.60679700  1
  Mn  Mn3  1  0.20432000  0.60064700  0.20355400  1
  Mn  Mn4  1  0.88572900  0.72189800  0.42439400  1
  Mn  Mn5  1  0.77984900  0.73704200  0.14074700  1
  Mn  Mn6  1  0.91585400  0.29270400  0.28324100  1
  Mn  Mn7  1  0.38572900  0.77810200  0.07560600  1
  Mn  Mn8  1  0.21631000  0.95539200  0.54295900  1
  Mn  Mn9  1  0.38740700  0.10563900  0.41674600  1
  Mn  Mn10  1  0.61037700  0.54320200  0.25685400  1
  Mn  Mn11  1  0.39440000  0.90016800  0.89320300  1
  Mn  Mn12  1  0.09427200  0.06484400  0.05958100  1
  Mn  Mn13  1  0.10560000  0.40016800  0.39320300  1
  Mn  Mn14  1  0.61259300  0.89436100  0.58325400  1
  Mn  Mn15  1  0.11037700  0.95679800  0.24314600  1
  Mn  Mn16  1  0.40572800  0.56484400  0.55958100  1
  Mn  Mn17  1  0.71631000  0.54460800  0.95704100  1
  Mn  Mn18  1  0.90572800  0.93515600  0.94041900  1
  Mn  Mn19  1  0.88962300  0.04320200  0.75685400  1
  Mn  Mn20  1  0.11259300  0.60563900  0.91674600  1
  Mn  Mn21  1  0.11427100  0.27810200  0.57560600  1
  Mn  Mn22  1  0.88740700  0.39436100  0.08325400  1
  Mn  Mn23  1  0.70432000  0.89935300  0.29644600  1
  Mn  Mn24  1  0.41585400  0.20729600  0.21675900  1
  Mn  Mn25  1  0.72015100  0.23704200  0.64074700  1
  Mn  Mn26  1  0.38962300  0.45679800  0.74314600  1
  Mn  Mn27  1  0.60560000  0.09983200  0.10679700  1
  Mn  Mn28  1  0.08414600  0.70729600  0.71675900  1
  Mn  Mn29  1  0.59427200  0.43515600  0.44041900  1
  Mn  Mn30  1  0.79568000  0.39935300  0.79644600  1
  Mn  Mn31  1  0.27984900  0.76295800  0.35925300  1
  Mn  Mn32  1  0.78369000  0.04460800  0.45704100  1
  Mn  Mn33  1  0.28369000  0.45539200  0.04295900  1
  Mn  Mn34  1  0.61427100  0.22189800  0.92439400  1
  Mn  Mn35  1  0.22015100  0.26295800  0.85925300  1
  P  P0  1  0.36923900  0.44960700  0.32787000  1
  P  P1  1  0.94324700  0.29983500  0.93907600  1
  P  P2  1  0.85404300  0.37216500  0.49908700  1
  P  P3  1  0.06838400  0.34945100  0.71814100  1
  P  P4  1  0.14595700  0.62783500  0.50091300  1
  P  P5  1  0.56838400  0.15054900  0.78185900  1
  P  P6  1  0.55675300  0.79983500  0.43907600  1
  P  P7  1  0.57538100  0.46698800  0.10556400  1
  P  P8  1  0.05675300  0.70016500  0.06092400  1
  P  P9  1  0.44324700  0.20016500  0.56092400  1
  P  P10  1  0.86923900  0.05039300  0.17213000  1
  P  P11  1  0.92461900  0.96698800  0.60556400  1
  P  P12  1  0.64302500  0.19203800  0.33083200  1
  P  P13  1  0.13076100  0.94960700  0.82787000  1
  P  P14  1  0.35404300  0.12783500  0.00091300  1
  P  P15  1  0.64595700  0.87216500  0.99908700  1
  P  P16  1  0.43161600  0.84945100  0.21814100  1
  P  P17  1  0.07538100  0.03301200  0.39443600  1
  P  P18  1  0.42461900  0.53301200  0.89443600  1
  P  P19  1  0.63076100  0.55039300  0.67213000  1
  P  P20  1  0.85697500  0.69203800  0.83083200  1
  P  P21  1  0.35697500  0.80796200  0.66916800  1
  P  P22  1  0.93161600  0.65054900  0.28185900  1
  P  P23  1  0.14302500  0.30796200  0.16916800  1
  O  O0  1  0.39193500  0.08959900  0.51736200  1
  O  O1  1  0.55152700  0.77725400  0.25664900  1
  O  O2  1  0.50144300  0.84300100  0.98180000  1
  O  O3  1  0.73998500  0.43107900  0.69133700  1
  O  O4  1  0.07851800  0.89845200  0.76632200  1
  O  O5  1  0.05152700  0.72274600  0.24335100  1
  O  O6  1  0.46963900  0.69081300  0.86250800  1
  O  O7  1  0.80225500  0.17776800  0.12526600  1
  O  O8  1  0.26001500  0.56892100  0.30866300  1
  O  O9  1  0.04050000  0.05662600  0.57001000  1
  O  O10  1  0.93472100  0.72478800  0.88971800  1
  O  O11  1  0.10806500  0.58959900  0.01736200  1
  O  O12  1  0.30225500  0.32223200  0.37473400  1
  O  O13  1  0.94847300  0.27725400  0.75664900  1
  O  O14  1  0.18135700  0.37985300  0.76318700  1
  O  O15  1  0.74284100  0.58234200  0.85329000  1
  O  O16  1  0.56677600  0.12618700  0.59708900  1
  O  O17  1  0.94220600  0.61157600  0.78650300  1
  O  O18  1  0.86694900  0.05690800  0.65551300  1
  O  O19  1  0.51471400  0.47529000  0.64226800  1
  O  O20  1  0.55779400  0.11157600  0.28650300  1
  O  O21  1  0.95950000  0.94337400  0.42999000  1
  O  O22  1  0.61616100  0.26501000  0.82396900  1
  O  O23  1  0.42148200  0.39845200  0.26632200  1
  O  O24  1  0.36694900  0.44309200  0.84448700  1
  O  O25  1  0.19774500  0.82223200  0.87473400  1
  O  O26  1  0.66946200  0.77776800  0.39292000  1
  O  O27  1  0.81497100  0.94685000  0.55723300  1
  O  O28  1  0.79213000  0.83789700  0.79537700  1
  O  O29  1  0.48528600  0.52471000  0.35773200  1
  O  O30  1  0.18502900  0.05315000  0.44276700  1
  O  O31  1  0.92148200  0.10154800  0.23367800  1
  O  O32  1  0.68135700  0.12014700  0.73681300  1
  O  O33  1  0.31864300  0.87985300  0.26318700  1
  O  O34  1  0.25715900  0.41765800  0.14671000  1
  O  O35  1  0.97882400  0.14728900  0.97873600  1
  O  O36  1  0.33053800  0.22223200  0.60708000  1
  O  O37  1  0.96624200  0.50006100  0.32444600  1
  O  O38  1  0.29579900  0.98336400  0.04093300  1
  O  O39  1  0.46624200  0.99993900  0.17555400  1
  O  O40  1  0.70420100  0.01663600  0.95906700  1
  O  O41  1  0.25856100  0.24974200  0.01524700  1
  O  O42  1  0.54050000  0.44337400  0.92999000  1
  O  O43  1  0.89193500  0.41040100  0.98263800  1
  O  O44  1  0.88383900  0.76501000  0.32396900  1
  O  O45  1  0.53036100  0.30918700  0.13749200  1
  O  O46  1  0.99855700  0.34300100  0.48180000  1
  O  O47  1  0.06527900  0.27521200  0.11028200  1
  O  O48  1  0.53375800  0.00006100  0.82444600  1
  O  O49  1  0.05779400  0.38842400  0.21349700  1
  O  O50  1  0.79579900  0.51663600  0.45906700  1
  O  O51  1  0.47882400  0.35271100  0.52126400  1
  O  O52  1  0.64955800  0.88162600  0.07214800  1
  O  O53  1  0.00144300  0.65699900  0.51820000  1
  O  O54  1  0.70787000  0.33789700  0.29537700  1
  O  O55  1  0.85044200  0.38162600  0.57214800  1
  O  O56  1  0.93322400  0.62618700  0.09708900  1
  O  O57  1  0.83053800  0.27776800  0.89292000  1
  O  O58  1  0.49855700  0.15699900  0.01820000  1
  O  O59  1  0.44220600  0.88842400  0.71349700  1
  O  O60  1  0.38383900  0.73499000  0.17603100  1
  O  O61  1  0.76001500  0.93107900  0.19133700  1
  O  O62  1  0.57851800  0.60154800  0.73367800  1
  O  O63  1  0.81864300  0.62014700  0.23681300  1
  O  O64  1  0.03036100  0.19081300  0.36250800  1
  O  O65  1  0.16946200  0.72223200  0.10708000  1
  O  O66  1  0.43322400  0.87381300  0.40291100  1
  O  O67  1  0.13305100  0.94309200  0.34448700  1
  O  O68  1  0.56527900  0.22478800  0.38971800  1
  O  O69  1  0.14955800  0.61837400  0.42785200  1
  O  O70  1  0.60806500  0.91040100  0.48263800  1
  O  O71  1  0.75856100  0.25025800  0.48475300  1
  O  O72  1  0.02117600  0.85271100  0.02126400  1
  O  O73  1  0.03375800  0.49993900  0.67555400  1
  O  O74  1  0.74143900  0.75025800  0.98475300  1
  O  O75  1  0.63305100  0.55690800  0.15551300  1
  O  O76  1  0.68502900  0.44685000  0.05723300  1
  O  O77  1  0.20420100  0.48336400  0.54093300  1
  O  O78  1  0.98528600  0.97529000  0.14226800  1
  O  O79  1  0.45950000  0.55662600  0.07001000  1
  O  O80  1  0.96963900  0.80918700  0.63749200  1
  O  O81  1  0.75715900  0.08234200  0.35329000  1
  O  O82  1  0.44847300  0.22274600  0.74335100  1
  O  O83  1  0.11616100  0.23499000  0.67603100  1
  O  O84  1  0.01471400  0.02471000  0.85773200  1
  O  O85  1  0.31497100  0.55315000  0.94276700  1
  O  O86  1  0.24143900  0.74974200  0.51524700  1
  O  O87  1  0.06677600  0.37381300  0.90291100  1
  O  O88  1  0.24284100  0.91765800  0.64671000  1
  O  O89  1  0.43472100  0.77521200  0.61028200  1
  O  O90  1  0.23998500  0.06892100  0.80866300  1
  O  O91  1  0.52117600  0.64728900  0.47873600  1
  O  O92  1  0.35044200  0.11837400  0.92785200  1
  O  O93  1  0.20787000  0.16210300  0.20462300  1
  O  O94  1  0.29213000  0.66210300  0.70462300  1
  O  O95  1  0.69774500  0.67776800  0.62526600  1
loop_
_geom_bond_atom_site_label_1
_geom_bond_atom_site_label_2
_geom_bond_distance
_geom_bond_site_symmetry_2
Mn0 O82 2.162030 1_555
Mn0 O36 2.203512 1_555
Mn0 O83 2.226337 1_555
Mn0 O88 2.270873 1_545
Mn0 O90 2.285151 1_555
Mn0 O59 2.420911 1_545
Mn1 O6 2.139989 1_555
Mn1 O59 2.156758 1_555
Mn1 O62 2.170883 1_555
Mn1 O28 2.183410 1_555
Mn1 O48 2.259173 1_565
Mn1 O15 2.755558 1_555
Mn2 O73 2.137625 1_655
Mn2 O53 2.172012 1_655
Mn2 O95 2.183029 1_555
Mn2 O80 2.241395 1_555
Mn2 O55 2.266064 1_555
Mn2 O3 2.683329 1_555
Mn3 O5 2.162030 1_555
Mn3 O65 2.203512 1_555
Mn3 O60 2.226337 1_555
Mn3 O34 2.270873 1_555
Mn3 O8 2.285151 1_555
Mn3 O49 2.420911 1_555
Mn4 O50 2.103336 1_555
Mn4 O44 2.114576 1_555
Mn4 O21 2.167850 1_555
Mn4 O53 2.316325 1_655
Mn4 O26 2.337405 1_555
Mn4 O69 2.846974 1_655
Mn5 O56 2.149937 1_555
Mn5 O63 2.188237 1_555
Mn5 O75 2.202661 1_555
Mn5 O61 2.215749 1_555
Mn5 O52 2.240302 1_555
Mn6 O64 2.139989 1_655
Mn6 O49 2.156758 1_655
Mn6 O31 2.170883 1_555
Mn6 O54 2.183410 1_555
Mn6 O37 2.259173 1_555
Mn6 O81 2.755558 1_555
Mn7 O38 2.103336 1_555
Mn7 O60 2.114576 1_555
Mn7 O79 2.167850 1_555
Mn7 O2 2.316325 1_554
Mn7 O65 2.337405 1_555
Mn7 O52 2.846974 1_555
Mn8 O86 2.061631 1_555
Mn8 O9 2.135304 1_565
Mn8 O0 2.186169 1_565
Mn8 O88 2.200559 1_555
Mn8 O30 2.202503 1_565
Mn9 O0 2.127242 1_555
Mn9 O68 2.143563 1_555
Mn9 O30 2.170298 1_555
Mn9 O12 2.205734 1_555
Mn9 O66 2.220834 1_545
Mn10 O75 2.156641 1_555
Mn10 O54 2.156940 1_555
Mn10 O1 2.207457 1_555
Mn10 O63 2.255343 1_555
Mn10 O23 2.322580 1_555
Mn10 O29 2.483102 1_555
Mn11 O48 2.137625 1_565
Mn11 O2 2.172012 1_555
Mn11 O25 2.183029 1_555
Mn11 O6 2.241395 1_555
Mn11 O92 2.266064 1_565
Mn11 O90 2.683329 1_565
Mn12 O35 2.123189 1_454
Mn12 O78 2.132943 1_445
Mn12 O38 2.240949 1_545
Mn12 O72 2.330395 1_545
Mn12 O47 2.357469 1_555
Mn12 O41 2.452654 1_555
Mn13 O37 2.137625 1_455
Mn13 O46 2.172012 1_455
Mn13 O12 2.183029 1_555
Mn13 O64 2.241395 1_555
Mn13 O69 2.266064 1_555
Mn13 O8 2.683329 1_555
Mn14 O70 2.127242 1_555
Mn14 O89 2.143563 1_555
Mn14 O27 2.170298 1_555
Mn14 O95 2.205734 1_555
Mn14 O16 2.220834 1_565
Mn15 O67 2.156641 1_555
Mn15 O93 2.156940 1_565
Mn15 O5 2.207457 1_555
Mn15 O33 2.255343 1_555
Mn15 O31 2.322580 1_465
Mn15 O78 2.483102 1_455
Mn16 O91 2.123189 1_555
Mn16 O19 2.132943 1_555
Mn16 O77 2.240949 1_555
Mn16 O51 2.330395 1_555
Mn16 O89 2.357469 1_555
Mn16 O86 2.452654 1_555
Mn17 O74 2.061631 1_555
Mn17 O42 2.135304 1_555
Mn17 O43 2.186169 1_555
Mn17 O15 2.200559 1_555
Mn17 O76 2.202503 1_556
Mn18 O72 2.123189 1_656
Mn18 O84 2.132943 1_665
Mn18 O40 2.240949 1_565
Mn18 O35 2.330395 1_565
Mn18 O10 2.357469 1_555
Mn18 O74 2.452654 1_555
Mn19 O18 2.156641 1_555
Mn19 O28 2.156940 1_545
Mn19 O13 2.207457 1_555
Mn19 O32 2.255343 1_555
Mn19 O4 2.322580 1_645
Mn19 O84 2.483102 1_655
Mn20 O11 2.127242 1_556
Mn20 O10 2.143563 1_455
Mn20 O85 2.170298 1_555
Mn20 O25 2.205734 1_555
Mn20 O87 2.220834 1_555
Mn21 O77 2.103336 1_555
Mn21 O83 2.114576 1_555
Mn21 O9 2.167850 1_555
Mn21 O46 2.316325 1_455
Mn21 O36 2.337405 1_555
Mn21 O55 2.846974 1_455
Mn22 O43 2.127242 1_554
Mn22 O47 2.143563 1_655
Mn22 O76 2.170298 1_555
Mn22 O7 2.205734 1_555
Mn22 O56 2.220834 1_555
Mn23 O1 2.162030 1_555
Mn23 O26 2.203512 1_555
Mn23 O44 2.226337 1_555
Mn23 O81 2.270873 1_565
Mn23 O61 2.285151 1_555
Mn23 O20 2.420911 1_565
Mn24 O45 2.139989 1_555
Mn24 O20 2.156758 1_555
Mn24 O23 2.170883 1_555
Mn24 O93 2.183410 1_555
Mn24 O39 2.259173 1_545
Mn24 O34 2.755558 1_555
Mn25 O16 2.149937 1_555
Mn25 O32 2.188237 1_555
Mn25 O18 2.202661 1_555
Mn25 O3 2.215749 1_555
Mn25 O55 2.240302 1_555
Mn26 O24 2.156641 1_555
Mn26 O94 2.156940 1_555
Mn26 O82 2.207457 1_555
Mn26 O14 2.255343 1_555
Mn26 O62 2.322580 1_555
Mn26 O19 2.483102 1_555
Mn27 O39 2.137625 1_545
Mn27 O58 2.172012 1_555
Mn27 O7 2.183029 1_555
Mn27 O45 2.241395 1_555
Mn27 O52 2.266064 1_545
Mn27 O61 2.683329 1_545
Mn28 O80 2.139989 1_455
Mn28 O17 2.156758 1_455
Mn28 O4 2.170883 1_555
Mn28 O94 2.183410 1_555
Mn28 O73 2.259173 1_555
Mn28 O88 2.755558 1_555
Mn29 O51 2.123189 1_555
Mn29 O29 2.132943 1_555
Mn29 O50 2.240949 1_555
Mn29 O91 2.330395 1_555
Mn29 O68 2.357469 1_555
Mn29 O71 2.452654 1_555
Mn30 O13 2.162030 1_555
Mn30 O57 2.203512 1_555
Mn30 O22 2.226337 1_555
Mn30 O15 2.270873 1_555
Mn30 O3 2.285151 1_555
Mn30 O17 2.420911 1_555
Mn31 O66 2.149937 1_555
Mn31 O33 2.188237 1_555
Mn31 O67 2.202661 1_555
Mn31 O8 2.215749 1_555
Mn31 O69 2.240302 1_555
Mn32 O71 2.061631 1_555
Mn32 O21 2.135304 1_545
Mn32 O70 2.186169 1_545
Mn32 O81 2.200559 1_555
Mn32 O27 2.202503 1_545
Mn33 O41 2.061631 1_555
Mn33 O79 2.135304 1_555
Mn33 O11 2.186169 1_555
Mn33 O34 2.200559 1_555
Mn33 O85 2.202503 1_554
Mn34 O40 2.103336 1_555
Mn34 O22 2.114576 1_555
Mn34 O42 2.167850 1_555
Mn34 O58 2.316325 1_556
Mn34 O57 2.337405 1_555
Mn34 O92 2.846974 1_555
Mn35 O87 2.149937 1_555
Mn35 O14 2.188237 1_555
Mn35 O24 2.202661 1_555
Mn35 O90 2.215749 1_555
Mn35 O92 2.240302 1_555
O0 P9 1.561814 1_555
O1 P16 1.558313 1_555
O2 P15 1.551968 1_555
O3 P19 1.562438 1_555
O4 P13 1.553760 1_555
O5 P22 1.558313 1_455
O6 P18 1.554912 1_555
O7 P10 1.560791 1_555
O8 P0 1.562438 1_555
O9 P11 1.561352 1_445
O10 P20 1.552774 1_555
O11 P8 1.561814 1_555
O12 P0 1.560791 1_555
O13 P3 1.558313 1_655
O14 P3 1.552274 1_555
O15 P20 1.557148 1_555
O16 P9 1.571083 1_555
O17 P20 1.549468 1_555
O18 P11 1.556153 1_545
O19 P19 1.551827 1_555
O20 P12 1.549468 1_555
O21 P17 1.561352 1_665
O22 P5 1.555238 1_555
O23 P0 1.553760 1_555
O24 P18 1.556153 1_555
O25 P13 1.560791 1_555
O26 P6 1.546543 1_555
O27 P11 1.550782 1_555
O28 P20 1.563703 1_555
O29 P0 1.551827 1_555
O30 P17 1.550782 1_555
O31 P10 1.553760 1_555
O32 P5 1.552274 1_555
O33 P16 1.552274 1_555
O34 P23 1.557148 1_555
O35 P1 1.547154 1_555
O36 P9 1.546543 1_555
O37 P22 1.556514 1_555
O38 P14 1.564166 1_565
O39 P16 1.556514 1_555
O40 P15 1.564166 1_545
O41 P14 1.540659 1_555
O42 P18 1.561352 1_555
O43 P1 1.561814 1_555
O44 P22 1.555238 1_555
O45 P7 1.554912 1_555
O46 P2 1.551968 1_555
O47 P23 1.552774 1_555
O48 P5 1.556514 1_555
O49 P23 1.549468 1_555
O50 P2 1.564166 1_555
O51 P9 1.547154 1_555
O52 P15 1.573845 1_554
O53 P4 1.551968 1_555
O54 P12 1.563703 1_555
O55 P2 1.573845 1_555
O56 P8 1.571083 1_655
O57 P1 1.546543 1_555
O58 P14 1.551968 1_555
O59 P21 1.549468 1_555
O60 P16 1.555238 1_555
O61 P10 1.562438 1_565
O62 P19 1.553760 1_555
O63 P22 1.552274 1_555
O64 P17 1.554912 1_555
O65 P8 1.546543 1_555
O66 P6 1.571083 1_555
O67 P17 1.556153 1_565
O68 P12 1.552774 1_555
O69 P4 1.573845 1_555
O70 P6 1.561814 1_555
O71 P2 1.540659 1_555
O72 P8 1.547154 1_555
O73 P3 1.556514 1_555
O74 P15 1.540659 1_555
O75 P7 1.556153 1_555
O76 P7 1.550782 1_555
O77 P4 1.564166 1_555
O78 P10 1.551827 1_565
O79 P7 1.561352 1_555
O80 P11 1.554912 1_555
O81 P12 1.557148 1_555
O82 P5 1.558313 1_555
O83 P3 1.555238 1_555
O84 P13 1.551827 1_545
O85 P18 1.550782 1_555
O86 P4 1.540659 1_555
O87 P1 1.571083 1_455
O88 P21 1.557148 1_555
O89 P21 1.552774 1_555
O90 P13 1.562438 1_545
O91 P6 1.547154 1_555
O92 P14 1.573845 1_556
O93 P23 1.563703 1_555
O94 P21 1.563703 1_555
O95 P19 1.560791 1_555
