# generated using pymatgen
data_Ga2FeO4
_symmetry_space_group_name_H-M   'P 1'
_cell_length_a   5.77627727
_cell_length_b   8.42788694
_cell_length_c   5.99521973
_cell_angle_alpha   90.00013386
_cell_angle_beta   90.00333220
_cell_angle_gamma   90.00049438
_symmetry_Int_Tables_number   1
_chemical_formula_structural   Ga2FeO4
_chemical_formula_sum   'Ga8 Fe4 O16'
_cell_volume   291.85815816
_cell_formula_units_Z   4
loop_
 _symmetry_equiv_pos_site_id
 _symmetry_equiv_pos_as_xyz
  1  'x, y, z'
loop_
 _atom_site_type_symbol
 _atom_site_label
 _atom_site_symmetry_multiplicity
 _atom_site_fract_x
 _atom_site_fract_y
 _atom_site_fract_z
 _atom_site_occupancy
  Ga  Ga0  1  0.00000792  0.00962748  0.99999818  1
  Ga  Ga1  1  0.49999673  0.50964560  0.50000191  1
  Ga  Ga2  1  0.49999192  0.24037369  0.00000230  1
  Ga  Ga3  1  0.00000321  0.74035516  0.49999783  1
  Ga  Ga4  1  -0.00000357  0.37500306  0.24997694  1
  Ga  Ga5  1  0.50000347  0.87499756  0.75002318  1
  Ga  Ga6  1  0.99999439  0.37500352  0.75001415  1
  Ga  Ga7  1  0.50000565  0.87499696  0.24998519  1
  Fe  Fe0  1  0.24999953  0.12500036  0.49999982  1
  Fe  Fe1  1  0.25000138  0.62500032  -0.00000049  1
  Fe  Fe2  1  0.74999980  0.62500022  -0.00000070  1
  Fe  Fe3  1  0.75000058  0.12500027  0.49999969  1
  O  O0  1  0.76493189  0.37316659  0.99997984  1
  O  O1  1  0.26494945  0.87316326  0.49998562  1
  O  O2  1  0.23504956  0.37316195  0.00001078  1
  O  O3  1  0.73506721  0.87316313  0.50003084  1
  O  O4  1  0.26495023  0.87683805  0.99998888  1
  O  O5  1  0.76493274  0.37683673  0.49996913  1
  O  O6  1  0.73506797  0.87683335  0.00002002  1
  O  O7  1  0.23505040  0.37683648  0.50001376  1
  O  O8  1  0.99999621  0.61026688  0.24760482  1
  O  O9  1  0.49996640  0.11027341  0.74762496  1
  O  O10  1  0.00000001  0.61026040  0.75238122  1
  O  O11  1  0.50000934  0.11027646  0.25238753  1
  O  O12  1  0.50000094  0.63973934  0.24761940  1
  O  O13  1  0.99999051  0.13972345  0.74761334  1
  O  O14  1  0.50000447  0.63973233  0.75239499  1
  O  O15  1  0.00003364  0.13972600  0.25237587  1
loop_
_geom_bond_atom_site_label_1
_geom_bond_atom_site_label_2
_geom_bond_distance
_geom_bond_site_symmetry_2
Ga0 O15 1.868571 1_556
Ga0 O13 1.868597 1_455
Ga0 O6 1.895928 1_446
Ga0 O4 1.895931 1_545
Ga1 O12 1.868575 1_555
Ga1 O14 1.868587 1_555
Ga1 O5 1.895998 1_555
Ga1 O7 1.896032 1_555
Ga2 O9 1.868578 1_554
Ga2 O11 1.868605 1_555
Ga2 O0 1.895922 1_554
Ga2 O2 1.895926 1_555
Ga3 O10 1.868584 1_555
Ga3 O8 1.868595 1_455
Ga3 O3 1.895994 1_455
Ga3 O1 1.896027 1_555
Ga4 O8 1.982828 1_455
Ga4 O15 1.982941 1_555
Ga4 O2 2.022306 1_555
Ga4 O0 2.022370 1_454
Ga4 O5 2.022462 1_455
Ga4 O7 2.022506 1_555
Ga5 O14 1.982840 1_555
Ga5 O9 1.982930 1_565
Ga5 O4 2.022304 1_555
Ga5 O6 2.022369 1_556
Ga5 O3 2.022463 1_555
Ga5 O1 2.022509 1_555
Ga6 O10 1.982769 1_655
Ga6 O13 1.982966 1_555
Ga6 O2 2.022332 1_656
Ga6 O0 2.022340 1_555
Ga6 O7 2.022469 1_655
Ga6 O5 2.022572 1_555
Ga7 O12 1.982775 1_555
Ga7 O11 1.982961 1_565
Ga7 O4 2.022332 1_554
Ga7 O6 2.022337 1_555
Ga7 O1 2.022470 1_555
Ga7 O3 2.022575 1_555
Fe0 O15 2.074570 1_555
Fe0 O9 2.074580 1_555
Fe0 O11 2.074816 1_555
Fe0 O13 2.074818 1_455
Fe0 O7 2.124203 1_555
Fe0 O1 2.124211 1_545
Fe1 O12 2.074693 1_555
Fe1 O10 2.074694 1_554
Fe1 O14 2.074759 1_554
Fe1 O8 2.074771 1_455
Fe1 O4 2.124215 1_554
Fe1 O2 2.124221 1_555
Fe2 O14 2.074608 1_554
Fe2 O8 2.074618 1_555
Fe2 O10 2.074810 1_654
Fe2 O12 2.074813 1_555
Fe2 O6 2.124174 1_555
Fe2 O0 2.124178 1_554
Fe3 O11 2.074619 1_555
Fe3 O13 2.074620 1_555
Fe3 O15 2.074959 1_655
Fe3 O9 2.074970 1_555
Fe3 O5 2.124200 1_555
Fe3 O3 2.124206 1_545
