# generated using pymatgen
data_Se2SN2Cl
_symmetry_space_group_name_H-M   'P 1'
_cell_length_a   8.28275300
_cell_length_b   8.85177600
_cell_length_c   15.51892400
_cell_angle_alpha   90.00000000
_cell_angle_beta   90.00000000
_cell_angle_gamma   90.00000000
_symmetry_Int_Tables_number   1
_chemical_formula_structural   Se2SN2Cl
_chemical_formula_sum   'Se16 S8 N16 Cl8'
_cell_volume   1137.80210271
_cell_formula_units_Z   8
loop_
 _symmetry_equiv_pos_site_id
 _symmetry_equiv_pos_as_xyz
  1  'x, y, z'
loop_
 _atom_site_type_symbol
 _atom_site_label
 _atom_site_symmetry_multiplicity
 _atom_site_fract_x
 _atom_site_fract_y
 _atom_site_fract_z
 _atom_site_occupancy
  Se  Se0  1  0.82053100  0.96433900  0.07811700  1
  Se  Se1  1  0.32053100  0.03566100  0.42188300  1
  Se  Se2  1  0.05405300  0.29932100  0.54526100  1
  Se  Se3  1  0.55405300  0.20067900  0.54526100  1
  Se  Se4  1  0.05405300  0.79932100  0.95473900  1
  Se  Se5  1  0.94594700  0.20067900  0.04526100  1
  Se  Se6  1  0.94594700  0.70067900  0.45473900  1
  Se  Se7  1  0.55405300  0.70067900  0.95473900  1
  Se  Se8  1  0.17946900  0.03566100  0.92188300  1
  Se  Se9  1  0.44594700  0.29932100  0.04526100  1
  Se  Se10  1  0.67946900  0.96433900  0.57811700  1
  Se  Se11  1  0.44594700  0.79932100  0.45473900  1
  Se  Se12  1  0.17946900  0.53566100  0.57811700  1
  Se  Se13  1  0.82053100  0.46433900  0.42188300  1
  Se  Se14  1  0.67946900  0.46433900  0.92188300  1
  Se  Se15  1  0.32053100  0.53566100  0.07811700  1
  S  S0  1  0.51301000  0.40975900  0.21913900  1
  S  S1  1  0.51301000  0.90975900  0.28086100  1
  S  S2  1  0.98699000  0.90975900  0.78086100  1
  S  S3  1  0.48699000  0.09024100  0.71913900  1
  S  S4  1  0.48699000  0.59024100  0.78086100  1
  S  S5  1  0.01301000  0.59024100  0.28086100  1
  S  S6  1  0.01301000  0.09024100  0.21913900  1
  S  S7  1  0.98699000  0.40975900  0.71913900  1
  N  N0  1  0.54025600  0.28109900  0.15115400  1
  N  N1  1  0.10101600  0.04038000  0.81215800  1
  N  N2  1  0.95974400  0.28109900  0.65115400  1
  N  N3  1  0.39898400  0.54038000  0.18784200  1
  N  N4  1  0.60101600  0.95962000  0.68784200  1
  N  N5  1  0.89898400  0.95962000  0.18784200  1
  N  N6  1  0.95974400  0.78109900  0.84884600  1
  N  N7  1  0.54025600  0.78109900  0.34884600  1
  N  N8  1  0.39898400  0.04038000  0.31215800  1
  N  N9  1  0.60101600  0.45962000  0.81215800  1
  N  N10  1  0.04025600  0.21890100  0.15115400  1
  N  N11  1  0.10101600  0.54038000  0.68784200  1
  N  N12  1  0.45974400  0.71890100  0.84884600  1
  N  N13  1  0.89898400  0.45962000  0.31215800  1
  N  N14  1  0.04025600  0.71890100  0.34884600  1
  N  N15  1  0.45974400  0.21890100  0.65115400  1
  Cl  Cl0  1  0.28098700  0.90422000  0.08448300  1
  Cl  Cl1  1  0.28098700  0.40422000  0.41551700  1
  Cl  Cl2  1  0.78098700  0.59578000  0.08448300  1
  Cl  Cl3  1  0.71901300  0.59578000  0.58448300  1
  Cl  Cl4  1  0.21901300  0.90422000  0.58448300  1
  Cl  Cl5  1  0.21901300  0.40422000  0.91551700  1
  Cl  Cl6  1  0.78098700  0.09578000  0.41551700  1
  Cl  Cl7  1  0.71901300  0.09578000  0.91551700  1
loop_
_geom_bond_atom_site_label_1
_geom_bond_atom_site_label_2
_geom_bond_distance
_geom_bond_site_symmetry_2
Se0 Se5 2.390744 1_565
Se1 Se11 2.390744 1_545
Se4 Se8 2.390744 1_565
Se10 Se3 2.390744 1_565
Se12 Se2 2.390744 1_555
Se13 Se6 2.390744 1_555
Se14 Se7 2.390744 1_555
Se15 Se9 2.390744 1_555
N0 S0 1.568786 1_555
N0 Se9 1.826685 1_555
N1 S2 1.569951 1_445
N1 Se8 1.823066 1_555
N2 S7 1.568786 1_555
N2 Se2 1.826685 1_655
N3 S0 1.569951 1_555
N3 Se15 1.823066 1_555
N4 S3 1.569951 1_565
N4 Se10 1.823066 1_555
N5 S6 1.569951 1_665
N5 Se0 1.823066 1_555
N6 S2 1.568786 1_555
N6 Se4 1.826685 1_655
N7 S1 1.568786 1_555
N7 Se11 1.826685 1_555
N8 S1 1.569951 1_545
N8 Se1 1.823066 1_555
N9 S4 1.569951 1_555
N9 Se14 1.823066 1_555
N10 S6 1.568786 1_555
N10 Se5 1.826685 1_455
N11 S7 1.569951 1_455
N11 Se12 1.823066 1_555
N12 S4 1.568786 1_555
N12 Se7 1.826685 1_555
N13 S5 1.569951 1_655
N13 Se13 1.823066 1_555
N14 S5 1.568786 1_555
N14 Se6 1.826685 1_455
N15 S3 1.568786 1_555
N15 Se3 1.826685 1_555
Cl0 Se8 2.903129 1_564
Cl0 Se4 2.906779 1_554
Cl0 Se15 3.280290 1_555
Cl0 S6 3.464798 1_565
Cl0 Se7 3.523594 1_554
Cl0 N10 3.578429 1_565
Cl0 N5 3.581130 1_455
Cl0 S1 3.603248 1_555
Cl0 N3 3.728342 1_555
Cl0 Se9 3.803782 1_565
Cl1 Se12 2.903129 1_555
Cl1 Se2 2.906779 1_555
Cl1 Se1 3.280290 1_555
Cl1 S5 3.464798 1_555
Cl1 Se3 3.523594 1_555
Cl1 N14 3.578429 1_555
Cl1 N13 3.581130 1_455
Cl1 S0 3.603248 1_555
Cl1 N8 3.728342 1_555
Cl1 Se11 3.803782 1_555
Cl2 Se14 2.903129 1_554
Cl2 Se7 2.906779 1_554
Cl2 Se0 3.280290 1_555
Cl2 S0 3.464798 1_555
Cl2 Se4 3.523594 1_654
Cl2 N0 3.578429 1_555
Cl2 N3 3.581130 1_555
Cl2 S5 3.603248 1_655
Cl2 N5 3.728342 1_555
Cl2 Se5 3.803782 1_555
Cl3 Se13 2.903129 1_555
Cl3 Se6 2.906779 1_555
Cl3 Se10 3.280290 1_555
Cl3 S7 3.464798 1_555
Cl3 Se11 3.523594 1_555
Cl3 N2 3.578429 1_555
Cl3 N11 3.581130 1_655
Cl3 S4 3.603248 1_555
Cl3 N4 3.728342 1_555
Cl3 Se3 3.803782 1_555
Cl4 Se1 2.903129 1_565
Cl4 Se11 2.906779 1_555
Cl4 Se12 3.280290 1_555
Cl4 S3 3.464798 1_565
Cl4 Se6 3.523594 1_455
Cl4 N15 3.578429 1_565
Cl4 N4 3.581130 1_555
Cl4 S2 3.603248 1_455
Cl4 N11 3.728342 1_555
Cl4 Se2 3.803782 1_565
Cl5 Se15 2.903129 1_556
Cl5 Se9 2.906779 1_556
Cl5 Se8 3.280290 1_555
Cl5 S4 3.464798 1_555
Cl5 Se5 3.523594 1_456
Cl5 N12 3.578429 1_555
Cl5 N9 3.581130 1_555
Cl5 S7 3.603248 1_455
Cl5 N1 3.728342 1_555
Cl5 Se4 3.803782 1_555
Cl6 Se10 2.903129 1_545
Cl6 Se3 2.906779 1_555
Cl6 Se13 3.280290 1_555
Cl6 S1 3.464798 1_545
Cl6 Se2 3.523594 1_655
Cl6 N7 3.578429 1_545
Cl6 N8 3.581130 1_555
Cl6 S6 3.603248 1_655
Cl6 N13 3.728342 1_555
Cl6 Se6 3.803782 1_545
Cl7 Se0 2.903129 1_546
Cl7 Se5 2.906779 1_556
Cl7 Se14 3.280290 1_555
Cl7 S2 3.464798 1_545
Cl7 Se9 3.523594 1_556
Cl7 N6 3.578429 1_545
Cl7 N1 3.581130 1_655
Cl7 S3 3.603248 1_555
Cl7 N9 3.728342 1_555
Cl7 Se7 3.803782 1_545
