# generated using pymatgen
data_NaLuGeO4
_symmetry_space_group_name_H-M   'P 1'
_cell_length_a   5.28250100
_cell_length_b   6.38057600
_cell_length_c   11.32070200
_cell_angle_alpha   90.00000000
_cell_angle_beta   90.00000000
_cell_angle_gamma   90.00000000
_symmetry_Int_Tables_number   1
_chemical_formula_structural   NaLuGeO4
_chemical_formula_sum   'Na4 Lu4 Ge4 O16'
_cell_volume   381.56877901
_cell_formula_units_Z   4
loop_
 _symmetry_equiv_pos_site_id
 _symmetry_equiv_pos_as_xyz
  1  'x, y, z'
loop_
 _atom_site_type_symbol
 _atom_site_label
 _atom_site_symmetry_multiplicity
 _atom_site_fract_x
 _atom_site_fract_y
 _atom_site_fract_z
 _atom_site_occupancy
  Na  Na0  1  0.50000000  0.50000000  0.00000000  1
  Na  Na1  1  0.00000000  0.50000000  0.50000000  1
  Na  Na2  1  0.50000000  0.00000000  0.00000000  1
  Na  Na3  1  0.00000000  0.00000000  0.50000000  1
  Lu  Lu0  1  0.99371400  0.75000000  0.22347700  1
  Lu  Lu1  1  0.49371400  0.25000000  0.27652300  1
  Lu  Lu2  1  0.00628600  0.25000000  0.77652300  1
  Lu  Lu3  1  0.50628600  0.75000000  0.72347700  1
  Ge  Ge0  1  0.94977000  0.75000000  0.90092000  1
  Ge  Ge1  1  0.44977000  0.25000000  0.59908000  1
  Ge  Ge2  1  0.05023000  0.25000000  0.09908000  1
  Ge  Ge3  1  0.55023000  0.75000000  0.40092000  1
  O  O0  1  0.83349400  0.75000000  0.04697500  1
  O  O1  1  0.33349400  0.25000000  0.45302500  1
  O  O2  1  0.16650600  0.25000000  0.95302500  1
  O  O3  1  0.66650600  0.75000000  0.54697500  1
  O  O4  1  0.20788300  0.03971700  0.17729800  1
  O  O5  1  0.70788300  0.96028300  0.32270200  1
  O  O6  1  0.79211700  0.53971700  0.82270200  1
  O  O7  1  0.29211700  0.46028300  0.67729800  1
  O  O8  1  0.79211700  0.96028300  0.82270200  1
  O  O9  1  0.29211700  0.03971700  0.67729800  1
  O  O10  1  0.20788300  0.46028300  0.17729800  1
  O  O11  1  0.70788300  0.53971700  0.32270200  1
  O  O12  1  0.22139200  0.75000000  0.38699600  1
  O  O13  1  0.72139200  0.25000000  0.11300400  1
  O  O14  1  0.77860800  0.25000000  0.61300400  1
  O  O15  1  0.27860800  0.75000000  0.88699600  1
loop_
_geom_bond_atom_site_label_1
_geom_bond_atom_site_label_2
_geom_bond_distance
_geom_bond_site_symmetry_2
Na0 O13 2.355587 1_555
Na0 O15 2.355587 1_554
Na0 O0 2.435325 1_555
Na0 O2 2.435325 1_554
Na0 O10 2.544407 1_555
Na0 O6 2.544407 1_554
Na1 O12 2.355587 1_555
Na1 O14 2.355587 1_455
Na1 O1 2.435325 1_555
Na1 O3 2.435325 1_455
Na1 O7 2.544407 1_555
Na1 O11 2.544407 1_455
Na2 O13 2.355587 1_555
Na2 O15 2.355587 1_544
Na2 O0 2.435325 1_545
Na2 O2 2.435325 1_554
Na2 O4 2.544407 1_555
Na2 O8 2.544407 1_544
Na3 O12 2.355587 1_545
Na3 O14 2.355587 1_455
Na3 O1 2.435325 1_555
Na3 O3 2.435325 1_445
Na3 O9 2.544407 1_555
Na3 O5 2.544407 1_445
Lu0 O0 2.169986 1_555
Lu0 O12 2.207547 1_655
Lu0 O4 2.229445 1_665
Lu0 O10 2.229445 1_655
Lu0 O5 2.311240 1_555
Lu0 O11 2.311240 1_555
Lu1 O1 2.169986 1_555
Lu1 O13 2.207547 1_555
Lu1 O11 2.229445 1_555
Lu1 O5 2.229445 1_545
Lu1 O10 2.311240 1_555
Lu1 O4 2.311240 1_555
Lu2 O2 2.169986 1_555
Lu2 O14 2.207547 1_455
Lu2 O8 2.229445 1_445
Lu2 O6 2.229445 1_455
Lu2 O7 2.311240 1_555
Lu2 O9 2.311240 1_555
Lu3 O3 2.169986 1_555
Lu3 O15 2.207547 1_555
Lu3 O9 2.229445 1_565
Lu3 O7 2.229445 1_555
Lu3 O6 2.311240 1_555
Lu3 O8 2.311240 1_555
Ge0 O15 1.744224 1_655
Ge0 O0 1.763847 1_556
Ge0 O8 1.810489 1_555
Ge0 O6 1.810489 1_555
Ge1 O14 1.744224 1_555
Ge1 O1 1.763847 1_555
Ge1 O7 1.810489 1_555
Ge1 O9 1.810489 1_555
Ge2 O13 1.744224 1_455
Ge2 O2 1.763847 1_554
Ge2 O10 1.810489 1_555
Ge2 O4 1.810489 1_555
Ge3 O12 1.744224 1_555
Ge3 O3 1.763847 1_555
Ge3 O11 1.810489 1_555
Ge3 O5 1.810489 1_555
