# generated using pymatgen
data_Dy2TiO5
_symmetry_space_group_name_H-M   'P 1'
_cell_length_a   7.15901500
_cell_length_b   7.28260197
_cell_length_c   12.69776834
_cell_angle_alpha   91.20537316
_cell_angle_beta   105.70692876
_cell_angle_gamma   119.15202053
_symmetry_Int_Tables_number   1
_chemical_formula_structural   Dy2TiO5
_chemical_formula_sum   'Dy10 Ti5 O25'
_cell_volume   547.28488115
_cell_formula_units_Z   5
loop_
 _symmetry_equiv_pos_site_id
 _symmetry_equiv_pos_as_xyz
  1  'x, y, z'
loop_
 _atom_site_type_symbol
 _atom_site_label
 _atom_site_symmetry_multiplicity
 _atom_site_fract_x
 _atom_site_fract_y
 _atom_site_fract_z
 _atom_site_occupancy
  Dy  Dy0  1  0.99072100  0.02607800  0.97970500  1
  Dy  Dy1  1  0.46586600  0.48542700  0.99222900  1
  Dy  Dy2  1  0.49917200  0.25477000  0.23652200  1
  Dy  Dy3  1  0.48695500  0.99673800  0.99047000  1
  Dy  Dy4  1  0.99444500  0.52196600  0.52705300  1
  Dy  Dy5  1  0.51861900  0.01402800  0.52193000  1
  Dy  Dy6  1  0.49402500  0.72244900  0.75084700  1
  Dy  Dy7  1  0.47326800  0.49715700  0.48165600  1
  Dy  Dy8  1  0.59302100  0.76372800  0.24993700  1
  Dy  Dy9  1  0.00597500  0.51020300  0.01341000  1
  Ti  Ti0  1  0.02648700  0.21049300  0.24151000  1
  Ti  Ti1  1  0.99062600  0.24808300  0.73885600  1
  Ti  Ti2  1  0.01728900  0.98683500  0.49887400  1
  Ti  Ti3  1  0.01034600  0.76793800  0.75810300  1
  Ti  Ti4  1  0.50717000  0.26639400  0.75584000  1
  O  O0  1  0.35352000  0.17227200  0.05321300  1
  O  O1  1  0.90048100  0.21841000  0.08446200  1
  O  O2  1  0.36852900  0.68103800  0.56775400  1
  O  O3  1  0.32454900  0.45651100  0.28502900  1
  O  O4  1  0.37422500  0.70697100  0.08051000  1
  O  O5  1  0.65570600  0.83419200  0.43141000  1
  O  O6  1  0.69852800  0.10289400  0.22871800  1
  O  O7  1  0.92534900  0.18292100  0.58669400  1
  O  O8  1  0.90521700  0.96402800  0.78123900  1
  O  O9  1  0.91278600  0.75368400  0.59216300  1
  O  O10  1  0.67411000  0.55369300  0.17778600  1
  O  O11  1  0.31471800  0.36750200  0.78173000  1
  O  O12  1  0.07740800  0.21311000  0.40337200  1
  O  O13  1  0.32817700  0.95794000  0.79271500  1
  O  O14  1  0.09070500  0.81686000  0.43171600  1
  O  O15  1  0.09877400  0.02520300  0.19978100  1
  O  O16  1  0.32316900  0.16583600  0.59056900  1
  O  O17  1  0.67577200  0.53880600  0.72340400  1
  O  O18  1  0.64125000  0.33801200  0.91776900  1
  O  O19  1  0.66793000  0.14180900  0.70974900  1
  O  O20  1  0.61990000  0.30687900  0.43406500  1
  O  O21  1  0.06652500  0.77170800  0.91756300  1
  O  O22  1  0.08379000  0.33281000  0.91514300  1
  O  O23  1  0.07613300  0.54493300  0.71666200  1
  O  O24  1  0.62276500  0.79868900  0.93284000  1
loop_
_geom_bond_atom_site_label_1
_geom_bond_atom_site_label_2
_geom_bond_distance
_geom_bond_site_symmetry_2
Dy0 O0 2.168446 1_656
Dy0 O24 2.212540 1_545
Dy0 O22 2.242463 1_655
Dy0 O1 2.327467 1_556
Dy0 O21 2.344902 1_645
Dy0 O8 2.403552 1_545
Dy0 O15 2.691219 1_656
Dy1 O24 2.251535 1_555
Dy1 O0 2.252123 1_556
Dy1 O22 2.284284 1_555
Dy1 O10 2.312571 1_556
Dy1 O18 2.352918 1_555
Dy1 O4 2.375594 1_556
Dy1 O11 2.546517 1_555
Dy2 O10 2.186692 1_555
Dy2 O6 2.209055 1_555
Dy2 O0 2.209696 1_555
Dy2 O20 2.376860 1_555
Dy2 O15 2.409048 1_555
Dy2 O3 2.503792 1_555
Dy3 O0 2.177234 1_566
Dy3 O24 2.295230 1_555
Dy3 O4 2.313767 1_556
Dy3 O13 2.406055 1_555
Dy3 O1 2.478811 1_566
Dy3 O18 2.494660 1_565
Dy3 O21 2.494776 1_555
Dy3 O6 2.885071 1_566
Dy4 O2 2.232501 1_655
Dy4 O9 2.244342 1_555
Dy4 O20 2.270141 1_555
Dy4 O23 2.300434 1_655
Dy4 O14 2.381540 1_655
Dy4 O7 2.450789 1_555
Dy4 O12 3.088093 1_655
Dy5 O2 2.287610 1_545
Dy5 O19 2.292052 1_555
Dy5 O20 2.313118 1_555
Dy5 O5 2.408151 1_545
Dy5 O7 2.416474 1_555
Dy5 O16 2.463042 1_555
Dy5 O14 2.550279 1_545
Dy6 O24 2.189131 1_555
Dy6 O2 2.208795 1_555
Dy6 O17 2.350364 1_555
Dy6 O11 2.359216 1_555
Dy6 O8 2.494073 1_555
Dy6 O23 2.513002 1_555
Dy6 O13 2.630725 1_555
Dy6 O19 2.804266 1_565
Dy7 O2 2.216131 1_555
Dy7 O20 2.261146 1_555
Dy7 O5 2.351862 1_555
Dy7 O3 2.382733 1_555
Dy7 O12 2.444461 1_555
Dy7 O9 2.670555 1_555
Dy7 O16 2.703365 1_555
Dy7 O17 2.956261 1_555
Dy8 O10 2.147120 1_555
Dy8 O4 2.181726 1_555
Dy8 O5 2.222731 1_555
Dy8 O6 2.250470 1_565
Dy8 O3 2.283525 1_555
Dy9 O22 2.132116 1_554
Dy9 O4 2.186649 1_555
Dy9 O1 2.187701 1_455
Dy9 O21 2.207906 1_554
Dy9 O18 2.212265 1_454
O0 O10 2.669057 1_555
O0 O21 2.780502 1_544
O0 O15 2.820517 1_555
O1 Ti0 1.968571 1_655
O1 O6 2.543025 1_555
O1 O22 2.752536 1_654
O3 Ti0 1.914122 1_555
O3 O5 2.772490 1_555
O4 O6 2.851261 1_565
O5 Ti2 2.150847 1_655
O5 O9 2.639150 1_555
O5 O7 2.648820 1_565
O6 Ti0 2.036814 1_655
O7 Ti1 1.852879 1_555
O7 Ti2 2.227570 1_645
O8 Ti3 1.959904 1_655
O8 Ti1 1.983819 1_565
O9 Ti3 2.015362 1_655
O9 Ti2 2.042736 1_655
O11 Ti1 1.940688 1_455
O11 Ti4 1.942143 1_555
O11 O23 2.588584 1_555
O11 O17 2.592245 1_555
O11 O22 2.606566 1_555
O11 O18 2.610173 1_555
O12 Ti0 1.985793 1_555
O12 Ti2 2.011704 1_545
O12 O3 2.650778 1_555
O12 O16 2.687812 1_555
O12 O6 2.732542 1_455
O12 O7 2.795047 1_455
O13 Ti3 1.910667 1_555
O13 Ti4 2.114722 1_565
O13 O23 2.623344 1_555
O13 O18 2.655245 1_565
O13 O21 2.661673 1_555
O13 O19 2.663181 1_565
O14 Ti2 1.835169 1_555
O14 O9 2.618823 1_455
O14 O16 2.672708 1_565
O14 O2 2.836642 1_555
O15 Ti0 1.779930 1_555
O16 Ti2 1.903887 1_545
O16 Ti4 2.043105 1_555
O16 O19 2.611916 1_555
O17 Ti4 1.879596 1_555
O17 Ti3 2.054120 1_655
O17 O8 2.668820 1_555
O17 O9 2.675597 1_555
O18 Ti4 1.954388 1_555
O19 Ti4 1.962121 1_555
O19 Ti1 1.963743 1_555
O19 O8 2.596788 1_545
O21 Ti3 1.951476 1_555
O21 O8 2.624326 1_455
O21 O4 2.817950 1_556
O22 Ti1 2.137484 1_455
O22 O8 2.650320 1_445
O23 Ti1 1.989331 1_455
O23 Ti3 1.994915 1_555
O23 O7 2.630415 1_455
O23 O9 2.647638 1_455
O24 O4 2.798071 1_556
