# generated using pymatgen
data_HPbBrO
_symmetry_space_group_name_H-M   'P 1'
_cell_length_a   4.14855000
_cell_length_b   7.50472300
_cell_length_c   10.17900200
_cell_angle_alpha   90.00000000
_cell_angle_beta   90.00000000
_cell_angle_gamma   90.00000000
_symmetry_Int_Tables_number   1
_chemical_formula_structural   HPbBrO
_chemical_formula_sum   'H4 Pb4 Br4 O4'
_cell_volume   316.91018391
_cell_formula_units_Z   4
loop_
 _symmetry_equiv_pos_site_id
 _symmetry_equiv_pos_as_xyz
  1  'x, y, z'
loop_
 _atom_site_type_symbol
 _atom_site_label
 _atom_site_symmetry_multiplicity
 _atom_site_fract_x
 _atom_site_fract_y
 _atom_site_fract_z
 _atom_site_occupancy
  H  H0  1  0.25000000  0.79806700  0.11419300  1
  H  H1  1  0.25000000  0.29806700  0.38580700  1
  H  H2  1  0.75000000  0.20193300  0.88580700  1
  H  H3  1  0.75000000  0.70193300  0.61419300  1
  Pb  Pb0  1  0.25000000  0.69559600  0.41581500  1
  Pb  Pb1  1  0.25000000  0.19559600  0.08418500  1
  Pb  Pb2  1  0.75000000  0.30440400  0.58418500  1
  Pb  Pb3  1  0.75000000  0.80440400  0.91581500  1
  Br  Br0  1  0.75000000  0.55437200  0.17984700  1
  Br  Br1  1  0.75000000  0.05437200  0.32015300  1
  Br  Br2  1  0.25000000  0.44562800  0.82015300  1
  Br  Br3  1  0.25000000  0.94562800  0.67984700  1
  O  O0  1  0.25000000  0.87765200  0.03834700  1
  O  O1  1  0.25000000  0.37765200  0.46165300  1
  O  O2  1  0.75000000  0.12234800  0.96165300  1
  O  O3  1  0.75000000  0.62234800  0.53834700  1
loop_
_geom_bond_atom_site_label_1
_geom_bond_atom_site_label_2
_geom_bond_distance
_geom_bond_site_symmetry_2
H0 O0 0.976096 1_555
H0 Pb0 3.165056 1_555
H1 O1 0.976096 1_555
H1 Pb1 3.165056 1_555
H2 O2 0.976096 1_555
H2 Pb2 3.165056 1_555
H3 O3 0.976096 1_555
H3 Pb3 3.165056 1_555
Br0 H0 2.844991 1_555
Br0 H0 2.844991 1_655
Br0 Pb3 3.277812 1_554
Br0 Pb0 3.345909 1_555
Br0 Pb0 3.345909 1_655
Br0 H1 3.521028 1_555
Br0 H1 3.521028 1_655
Br0 Pb1 3.535594 1_555
Br0 Pb1 3.535594 1_655
Br1 H1 2.844991 1_555
Br1 H1 2.844991 1_655
Br1 Pb2 3.277812 1_555
Br1 Pb1 3.345909 1_555
Br1 Pb1 3.345909 1_655
Br1 H0 3.521028 1_545
Br1 H0 3.521028 1_645
Br1 Pb0 3.535594 1_645
Br1 Pb0 3.535594 1_545
Br2 H2 2.844991 1_455
Br2 H2 2.844991 1_555
Br2 Pb1 3.277812 1_556
Br2 Pb2 3.345909 1_455
Br2 Pb2 3.345909 1_555
Br2 H3 3.521028 1_455
Br2 H3 3.521028 1_555
Br2 Pb3 3.535594 1_555
Br2 Pb3 3.535594 1_455
Br3 H3 2.844991 1_555
Br3 H3 2.844991 1_455
Br3 Pb0 3.277812 1_555
Br3 Pb3 3.345909 1_455
Br3 Pb3 3.345909 1_555
Br3 H2 3.521028 1_565
Br3 H2 3.521028 1_465
Br3 Pb2 3.535594 1_565
Br3 Pb2 3.535594 1_465
O0 Pb1 2.431273 1_565
O0 Pb3 2.482022 1_454
O0 Pb3 2.482022 1_554
O1 Pb0 2.431273 1_555
O1 Pb2 2.482022 1_555
O1 Pb2 2.482022 1_455
O2 Pb3 2.431273 1_545
O2 Pb1 2.482022 1_556
O2 Pb1 2.482022 1_656
O3 Pb2 2.431273 1_555
O3 Pb0 2.482022 1_655
O3 Pb0 2.482022 1_555
