# generated using pymatgen
data_Sb3P2H6C2NO9
_symmetry_space_group_name_H-M   'P 1'
_cell_length_a   6.98421100
_cell_length_b   9.61338998
_cell_length_c   10.31071991
_cell_angle_alpha   107.16880883
_cell_angle_beta   97.45501763
_cell_angle_gamma   88.67049731
_symmetry_Int_Tables_number   1
_chemical_formula_structural   Sb3P2H6C2NO9
_chemical_formula_sum   'Sb6 P4 H12 C4 N2 O18'
_cell_volume   655.75878516
_cell_formula_units_Z   2
loop_
 _symmetry_equiv_pos_site_id
 _symmetry_equiv_pos_as_xyz
  1  'x, y, z'
loop_
 _atom_site_type_symbol
 _atom_site_label
 _atom_site_symmetry_multiplicity
 _atom_site_fract_x
 _atom_site_fract_y
 _atom_site_fract_z
 _atom_site_occupancy
  Sb  Sb0  1  0.92994100  0.75153000  0.17426600  1
  Sb  Sb1  1  0.07005900  0.24847000  0.82573400  1
  Sb  Sb2  1  0.19008300  0.05366400  0.17531700  1
  Sb  Sb3  1  0.80991700  0.94633600  0.82468300  1
  Sb  Sb4  1  0.81190600  0.70087300  0.47402600  1
  Sb  Sb5  1  0.18809400  0.29912700  0.52597400  1
  P  P0  1  0.45726600  0.72310800  0.22645100  1
  P  P1  1  0.54273400  0.27689200  0.77354900  1
  P  P2  1  0.87993300  0.33089900  0.25388600  1
  P  P3  1  0.12006700  0.66910100  0.74611400  1
  H  H0  1  0.51108600  0.53533300  0.85289900  1
  H  H1  1  0.48891400  0.46466700  0.14710100  1
  H  H2  1  0.69235300  0.47319200  0.96156700  1
  H  H3  1  0.30764700  0.52680800  0.03843300  1
  H  H4  1  0.74161700  0.48515700  0.79913900  1
  H  H5  1  0.25838300  0.51484300  0.20086100  1
  H  H6  1  0.44941800  0.72755000  0.73841600  1
  H  H7  1  0.55058200  0.27245000  0.26158400  1
  H  H8  1  0.31151400  0.88530000  0.80807500  1
  H  H9  1  0.68848600  0.11470000  0.19192500  1
  H  H10  1  0.39937700  0.77140700  0.91277800  1
  H  H11  1  0.60062300  0.22859300  0.08722200  1
  C  C0  1  0.63033300  0.46040900  0.85566200  1
  C  C1  1  0.36966700  0.53959100  0.14433800  1
  C  C2  1  0.34269500  0.77280900  0.80855600  1
  C  C3  1  0.65730500  0.22719100  0.19144400  1
  N  N0  1  0.28451900  0.93919900  0.55593900  1
  N  N1  1  0.71548100  0.06080100  0.44406100  1
  O  O0  1  0.71819800  0.17771400  0.78199600  1
  O  O1  1  0.28180200  0.82228600  0.21800400  1
  O  O2  1  0.53113800  0.73160000  0.37821800  1
  O  O3  1  0.46886200  0.26840000  0.62178200  1
  O  O4  1  0.38053600  0.23851400  0.84772600  1
  O  O5  1  0.61946400  0.76148600  0.15227400  1
  O  O6  1  0.85584900  0.48911400  0.24877500  1
  O  O7  1  0.14415100  0.51088600  0.75122500  1
  O  O8  1  0.07282200  0.66978500  0.59338400  1
  O  O9  1  0.92717800  0.33021500  0.40661600  1
  O  O10  1  0.96258500  0.74950200  0.83483900  1
  O  O11  1  0.03741500  0.25049800  0.16516100  1
  O  O12  1  0.06078900  0.04324400  0.83174700  1
  O  O13  1  0.93921100  0.95675600  0.16825300  1
  O  O14  1  0.94788900  0.80472700  0.37731800  1
  O  O15  1  0.05211100  0.19527300  0.62268200  1
  O  O16  1  0.74074700  0.86250300  0.62564800  1
  O  O17  1  0.25925300  0.13749700  0.37435200  1
loop_
_geom_bond_atom_site_label_1
_geom_bond_atom_site_label_2
_geom_bond_distance
_geom_bond_site_symmetry_2
H6 N0 3.255026 1_555
H7 N1 3.255026 1_555
H8 O12 2.280392 1_565
H8 N0 2.779573 1_555
H9 O13 2.280392 1_545
H9 N1 2.779573 1_555
C0 H0 1.091494 1_555
C0 H2 1.093439 1_555
C0 H4 1.099235 1_555
C0 P1 1.799288 1_555
C1 H1 1.091494 1_555
C1 H3 1.093439 1_555
C1 H5 1.099235 1_555
C1 P0 1.799288 1_555
C2 H6 1.098620 1_555
C2 H8 1.099489 1_555
C2 H10 1.099812 1_555
C2 P3 1.805368 1_555
C3 H7 1.098620 1_555
C3 H9 1.099489 1_555
C3 H11 1.099812 1_555
C3 P2 1.805368 1_555
N0 O14 2.864005 1_455
N0 O15 2.876240 1_565
N0 O2 2.967833 1_555
N0 O17 3.029270 1_565
N0 O8 3.155838 1_555
N0 O16 3.289812 1_555
N0 O3 3.290581 1_565
N0 O12 3.306127 1_565
N0 O1 3.328080 1_555
N0 O4 3.497971 1_565
N0 N1 3.690163 1_565
N1 O15 2.864005 1_655
N1 O14 2.876240 1_545
N1 O3 2.967833 1_555
N1 O16 3.029270 1_545
N1 O9 3.155838 1_555
N1 O17 3.289812 1_555
N1 O2 3.290581 1_545
N1 O13 3.306127 1_545
N1 O0 3.328080 1_555
N1 O5 3.497971 1_545
O0 P1 1.544516 1_555
O0 Sb3 2.447528 1_545
O0 Sb1 2.512788 1_655
O0 O12 2.754785 1_655
O1 P0 1.544516 1_555
O1 Sb2 2.447528 1_565
O1 Sb0 2.512788 1_455
O1 O13 2.754785 1_455
O2 P0 1.561592 1_555
O2 Sb4 2.133335 1_555
O3 P1 1.561592 1_555
O3 Sb5 2.133335 1_555
O4 P1 1.554082 1_555
O4 Sb1 2.153668 1_555
O5 P0 1.554082 1_555
O5 Sb0 2.153668 1_555
O6 P2 1.541949 1_555
O6 Sb4 2.645196 1_555
O7 P3 1.541949 1_555
O7 Sb5 2.645196 1_555
O8 P3 1.568424 1_555
O8 Sb4 2.129442 1_455
O9 P2 1.568424 1_555
O9 Sb5 2.129442 1_655
O10 P3 1.564694 1_655
O10 Sb3 2.173211 1_555
O11 P2 1.564694 1_455
O11 Sb2 2.173211 1_555
O12 Sb3 1.986400 1_445
O12 Sb1 1.994899 1_555
O13 Sb2 1.986400 1_665
O13 Sb0 1.994899 1_555
O14 Sb4 1.941782 1_555
O14 Sb0 1.990786 1_555
O15 Sb5 1.941782 1_555
O15 Sb1 1.990786 1_555
O16 Sb4 1.958832 1_555
O16 Sb3 1.969458 1_555
O16 O2 2.730614 1_555
O17 Sb5 1.958832 1_555
O17 Sb2 1.969458 1_555
O17 O3 2.730614 1_555
