# generated using pymatgen
data_Ba20Nb19Se60
_symmetry_space_group_name_H-M   'P 1'
_cell_length_a   13.98474300
_cell_length_b   14.47425056
_cell_length_c   15.66007544
_cell_angle_alpha   62.47598721
_cell_angle_beta   81.16264465
_cell_angle_gamma   74.92022663
_symmetry_Int_Tables_number   1
_chemical_formula_structural   Ba20Nb19Se60
_chemical_formula_sum   'Ba20 Nb19 Se60'
_cell_volume   2712.24651434
_cell_formula_units_Z   1
loop_
 _symmetry_equiv_pos_site_id
 _symmetry_equiv_pos_as_xyz
  1  'x, y, z'
loop_
 _atom_site_type_symbol
 _atom_site_label
 _atom_site_symmetry_multiplicity
 _atom_site_fract_x
 _atom_site_fract_y
 _atom_site_fract_z
 _atom_site_occupancy
  Ba  Ba0  1  0.83337200  0.83589300  0.41207000  1
  Ba  Ba1  1  0.63473500  0.83693000  0.01653400  1
  Ba  Ba2  1  0.96561100  0.67509600  0.17978500  1
  Ba  Ba3  1  0.83354600  0.33285800  0.41676700  1
  Ba  Ba4  1  0.43295800  0.83441600  0.61704700  1
  Ba  Ba5  1  0.76641700  0.66725700  0.78316600  1
  Ba  Ba6  1  0.63593400  0.32841200  0.01771000  1
  Ba  Ba7  1  0.96579400  0.16213800  0.18016200  1
  Ba  Ba8  1  0.22976500  0.83813100  0.21043600  1
  Ba  Ba9  1  0.56666700  0.66843500  0.38215700  1
  Ba  Ba10  1  0.43333300  0.33156500  0.61784300  1
  Ba  Ba11  1  0.36406600  0.67158800  0.98229000  1
  Ba  Ba12  1  0.77023500  0.16186900  0.78956400  1
  Ba  Ba13  1  0.03420600  0.83786200  0.81983800  1
  Ba  Ba14  1  0.23358300  0.33274300  0.21683400  1
  Ba  Ba15  1  0.56704200  0.16558400  0.38295300  1
  Ba  Ba16  1  0.16645400  0.66714200  0.58323300  1
  Ba  Ba17  1  0.03438900  0.32490400  0.82021500  1
  Ba  Ba18  1  0.36526500  0.16307000  0.98346600  1
  Ba  Ba19  1  0.16662800  0.16410700  0.58793000  1
  Nb  Nb0  1  0.81852100  0.00059300  0.09064900  1
  Nb  Nb1  1  0.59691900  0.99990200  0.70134200  1
  Nb  Nb2  1  0.79930100  0.00021900  0.59970900  1
  Nb  Nb3  1  0.80011300  0.50063000  0.09967000  1
  Nb  Nb4  1  0.60133600  0.99991900  0.19934600  1
  Nb  Nb5  1  0.40308100  0.00009800  0.29865800  1
  Nb  Nb6  1  0.60056100  0.50017400  0.69993100  1
  Nb  Nb7  1  0.79934700  0.50054800  0.59947200  1
  Nb  Nb8  1  0.39866400  0.00008100  0.80065400  1
  Nb  Nb9  1  0.18147900  0.99940700  0.90935100  1
  Nb  Nb10  1  0.39943900  0.49982600  0.30006900  1
  Nb  Nb11  1  0.60052200  0.50055800  0.19980900  1
  Nb  Nb12  1  0.20069900  0.99978100  0.40029100  1
  Nb  Nb13  1  0.00000000  0.00000000  0.50000000  1
  Nb  Nb14  1  0.19988700  0.49937000  0.90033000  1
  Nb  Nb15  1  0.39947800  0.49944200  0.80019100  1
  Nb  Nb16  1  0.00000000  0.50000000  0.50000000  1
  Nb  Nb17  1  0.20065300  0.49945200  0.40052800  1
  Nb  Nb18  1  0.00000000  0.50000000  0.00000000  1
  Se  Se0  1  0.93521100  0.82621300  0.61939200  1
  Se  Se1  1  0.96517500  0.91300500  0.19105900  1
  Se  Se2  1  0.93496100  0.58623600  0.62005100  1
  Se  Se3  1  0.73136600  0.82751200  0.22048200  1
  Se  Se4  1  0.86108300  0.91295800  0.98293000  1
  Se  Se5  1  0.83053800  0.58663500  0.41076300  1
  Se  Se6  1  0.77086100  0.91280500  0.78791300  1
  Se  Se7  1  0.86526000  0.67383600  0.98024400  1
  Se  Se8  1  0.73530700  0.58616400  0.22030400  1
  Se  Se9  1  0.93449400  0.32640700  0.61928700  1
  Se  Se10  1  0.66671600  0.91272600  0.58011600  1
  Se  Se11  1  0.53774900  0.82519300  0.81854300  1
  Se  Se12  1  0.63052400  0.58581500  0.01080600  1
  Se  Se13  1  0.96934400  0.41329300  0.18894400  1
  Se  Se14  1  0.56687700  0.91252000  0.39116900  1
  Se  Se15  1  0.93443200  0.08733900  0.61889600  1
  Se  Se16  1  0.66507500  0.67428800  0.58041600  1
  Se  Se17  1  0.53473800  0.58687500  0.81943600  1
  Se  Se18  1  0.73496800  0.32614100  0.21962300  1
  Se  Se19  1  0.86533900  0.41357100  0.98005900  1
  Se  Se20  1  0.33368000  0.82626100  0.41994700  1
  Se  Se21  1  0.46232100  0.91258100  0.18159900  1
  Se  Se22  1  0.76974800  0.41369700  0.78893300  1
  Se  Se23  1  0.83117200  0.08737800  0.41046000  1
  Se  Se24  1  0.43059100  0.58652100  0.61107700  1
  Se  Se25  1  0.37187600  0.91399700  0.98626100  1
  Se  Se26  1  0.73136300  0.08588800  0.22059700  1
  Se  Se27  1  0.86139500  0.17363300  0.98233200  1
  Se  Se28  1  0.46509600  0.67403500  0.18049700  1
  Se  Se29  1  0.33465600  0.58648500  0.41994500  1
  Se  Se30  1  0.66534400  0.41351500  0.58005500  1
  Se  Se31  1  0.53490400  0.32596500  0.81950300  1
  Se  Se32  1  0.26863700  0.91411200  0.77940300  1
  Se  Se33  1  0.13860500  0.82636700  0.01766800  1
  Se  Se34  1  0.62812400  0.08600300  0.01373900  1
  Se  Se35  1  0.56940900  0.41347900  0.38892300  1
  Se  Se36  1  0.23025200  0.58630300  0.21106700  1
  Se  Se37  1  0.16882800  0.91262200  0.58954000  1
  Se  Se38  1  0.53767900  0.08741900  0.81840100  1
  Se  Se39  1  0.66632000  0.17373900  0.58005300  1
  Se  Se40  1  0.26503200  0.67385900  0.78037700  1
  Se  Se41  1  0.13466100  0.58642900  0.01994100  1
  Se  Se42  1  0.33492500  0.32571200  0.41958400  1
  Se  Se43  1  0.46526200  0.41312500  0.18056400  1
  Se  Se44  1  0.06556800  0.91266100  0.38110400  1
  Se  Se45  1  0.43312300  0.08748000  0.60883100  1
  Se  Se46  1  0.36947600  0.41418500  0.98919400  1
  Se  Se47  1  0.03065600  0.58670700  0.81105600  1
  Se  Se48  1  0.33328400  0.08727400  0.41988400  1
  Se  Se49  1  0.46225100  0.17480700  0.18145700  1
  Se  Se50  1  0.06550600  0.67359300  0.38071300  1
  Se  Se51  1  0.26469300  0.41383600  0.77969600  1
  Se  Se52  1  0.13474000  0.32616400  0.01975600  1
  Se  Se53  1  0.22913900  0.08719500  0.21208700  1
  Se  Se54  1  0.16946200  0.41336500  0.58923700  1
  Se  Se55  1  0.26863400  0.17248800  0.77951700  1
  Se  Se56  1  0.13891700  0.08704200  0.01707000  1
  Se  Se57  1  0.06503900  0.41376400  0.37994900  1
  Se  Se58  1  0.03482500  0.08699500  0.80894100  1
  Se  Se59  1  0.06478900  0.17378700  0.38060800  1
loop_
_geom_bond_atom_site_label_1
_geom_bond_atom_site_label_2
_geom_bond_distance
_geom_bond_site_symmetry_2
Ba0 Se1 3.487417 1_555
Ba0 Se26 3.566490 1_565
Ba0 Se3 3.576715 1_555
Ba0 Se50 3.592585 1_655
Ba0 Se44 3.593011 1_655
Ba0 Se10 3.614660 1_555
Ba0 Se23 3.620599 1_565
Ba0 Se14 3.621503 1_555
Ba0 Se5 3.627847 1_555
Ba0 Se16 3.635876 1_555
Ba0 Se0 3.672241 1_555
Ba0 Se2 3.682005 1_555
Ba1 Se4 3.503318 1_554
Ba1 Se34 3.562233 1_565
Ba1 Se3 3.587934 1_555
Ba1 Se25 3.590993 1_554
Ba1 Se38 3.598735 1_564
Ba1 Se7 3.606371 1_554
Ba1 Se6 3.606628 1_554
Ba1 Se21 3.608573 1_555
Ba1 Se28 3.636426 1_555
Ba1 Se8 3.654199 1_555
Ba1 Se11 3.657974 1_554
Ba1 Se12 3.692818 1_555
Ba2 Se1 3.527028 1_555
Ba2 Se4 3.528472 1_554
Ba2 Se33 3.581024 1_655
Ba2 Se3 3.591930 1_555
Ba2 Se41 3.615819 1_655
Ba2 Se36 3.617861 1_655
Ba2 Se50 3.622764 1_655
Ba2 Se7 3.625988 1_554
Ba2 Se5 3.629026 1_555
Ba2 Se8 3.634157 1_555
Ba2 Se57 3.702826 1_655
Ba2 Se13 3.712128 1_555
Ba3 Se39 3.582479 1_555
Ba3 Se59 3.584393 1_655
Ba3 Se30 3.594011 1_555
Ba3 Se13 3.594483 1_555
Ba3 Se57 3.599921 1_655
Ba3 Se35 3.602556 1_555
Ba3 Se15 3.606336 1_555
Ba3 Se23 3.608655 1_555
Ba3 Se8 3.612183 1_555
Ba3 Se9 3.618478 1_555
Ba3 Se18 3.618868 1_555
Ba3 Se5 3.620063 1_555
Ba4 Se32 3.551327 1_555
Ba4 Se14 3.559210 1_555
Ba4 Se40 3.599747 1_555
Ba4 Se37 3.601888 1_555
Ba4 Se16 3.602783 1_555
Ba4 Se45 3.605858 1_565
Ba4 Se10 3.612082 1_555
Ba4 Se11 3.612752 1_555
Ba4 Se48 3.618690 1_565
Ba4 Se17 3.625713 1_555
Ba4 Se20 3.634193 1_555
Ba4 Se24 3.641023 1_555
Ba5 Se11 3.547037 1_555
Ba5 Se12 3.592988 1_556
Ba5 Se2 3.596703 1_555
Ba5 Se0 3.599363 1_555
Ba5 Se17 3.599847 1_555
Ba5 Se47 3.604017 1_655
Ba5 Se6 3.605790 1_555
Ba5 Se10 3.608536 1_555
Ba5 Se22 3.617442 1_555
Ba5 Se7 3.618799 1_555
Ba5 Se19 3.620395 1_555
Ba5 Se16 3.620636 1_555
Ba6 Se27 3.493192 1_554
Ba6 Se34 3.567890 1_555
Ba6 Se26 3.571467 1_555
Ba6 Se22 3.593849 1_554
Ba6 Se19 3.600557 1_554
Ba6 Se49 3.611810 1_555
Ba6 Se31 3.620364 1_554
Ba6 Se18 3.625340 1_555
Ba6 Se43 3.633376 1_555
Ba6 Se46 3.635673 1_554
Ba6 Se12 3.658130 1_555
Ba6 Se17 3.674056 1_554
Ba7 Se1 3.532645 1_545
Ba7 Se27 3.541757 1_554
Ba7 Se56 3.586468 1_655
Ba7 Se26 3.600867 1_555
Ba7 Se53 3.602161 1_655
Ba7 Se23 3.617863 1_555
Ba7 Se52 3.621038 1_655
Ba7 Se44 3.621278 1_645
Ba7 Se19 3.631786 1_554
Ba7 Se18 3.632199 1_555
Ba7 Se59 3.707324 1_655
Ba7 Se13 3.714124 1_555
Ba8 Se56 3.532849 1_565
Ba8 Se33 3.540856 1_555
Ba8 Se21 3.586744 1_555
Ba8 Se25 3.592867 1_554
Ba8 Se1 3.593428 1_455
Ba8 Se53 3.614766 1_565
Ba8 Se44 3.615225 1_555
Ba8 Se50 3.626864 1_555
Ba8 Se28 3.630433 1_555
Ba8 Se36 3.638700 1_555
Ba8 Se20 3.704074 1_555
Ba8 Se29 3.719787 1_555
Ba9 Se3 3.549169 1_555
Ba9 Se8 3.591100 1_555
Ba9 Se21 3.598428 1_555
Ba9 Se5 3.600583 1_555
Ba9 Se14 3.601110 1_555
Ba9 Se20 3.601271 1_555
Ba9 Se24 3.609446 1_555
Ba9 Se29 3.612277 1_555
Ba9 Se28 3.616500 1_555
Ba9 Se16 3.627290 1_555
Ba9 Se35 3.632798 1_555
Ba9 Se30 3.635816 1_555
Ba10 Se55 3.549164 1_555
Ba10 Se51 3.591100 1_555
Ba10 Se38 3.598428 1_555
Ba10 Se54 3.600583 1_555
Ba10 Se45 3.601110 1_555
Ba10 Se39 3.601271 1_555
Ba10 Se35 3.609446 1_555
Ba10 Se30 3.612277 1_555
Ba10 Se31 3.616500 1_555
Ba10 Se42 3.627290 1_555
Ba10 Se24 3.632798 1_555
Ba10 Se29 3.635816 1_555
Ba11 Se33 3.493192 1_556
Ba11 Se25 3.567890 1_555
Ba11 Se32 3.571467 1_555
Ba11 Se36 3.593849 1_556
Ba11 Se41 3.600557 1_556
Ba11 Se11 3.611810 1_555
Ba11 Se28 3.620364 1_556
Ba11 Se40 3.625340 1_555
Ba11 Se17 3.633376 1_555
Ba11 Se12 3.635673 1_556
Ba11 Se46 3.658130 1_555
Ba11 Se43 3.674056 1_556
Ba12 Se4 3.532849 1_545
Ba12 Se27 3.540856 1_555
Ba12 Se38 3.586744 1_555
Ba12 Se34 3.592867 1_556
Ba12 Se58 3.593428 1_655
Ba12 Se6 3.614766 1_545
Ba12 Se15 3.615225 1_555
Ba12 Se9 3.626864 1_555
Ba12 Se31 3.630433 1_555
Ba12 Se22 3.638700 1_555
Ba12 Se39 3.704074 1_555
Ba12 Se30 3.719787 1_555
Ba13 Se58 3.532645 1_565
Ba13 Se33 3.541757 1_556
Ba13 Se4 3.586468 1_455
Ba13 Se32 3.600867 1_555
Ba13 Se6 3.602161 1_455
Ba13 Se37 3.617863 1_555
Ba13 Se7 3.621038 1_455
Ba13 Se15 3.621278 1_465
Ba13 Se41 3.631786 1_556
Ba13 Se40 3.632199 1_555
Ba13 Se0 3.707324 1_455
Ba13 Se47 3.714124 1_555
Ba14 Se49 3.547037 1_555
Ba14 Se46 3.592988 1_554
Ba14 Se57 3.596703 1_555
Ba14 Se59 3.599363 1_555
Ba14 Se43 3.599847 1_555
Ba14 Se13 3.604017 1_455
Ba14 Se53 3.605790 1_555
Ba14 Se48 3.608536 1_555
Ba14 Se36 3.617442 1_555
Ba14 Se52 3.618799 1_555
Ba14 Se41 3.620395 1_555
Ba14 Se42 3.620636 1_555
Ba15 Se26 3.551327 1_555
Ba15 Se45 3.559210 1_555
Ba15 Se18 3.599747 1_555
Ba15 Se23 3.601888 1_555
Ba15 Se42 3.602783 1_555
Ba15 Se14 3.605858 1_545
Ba15 Se48 3.612082 1_555
Ba15 Se49 3.612752 1_555
Ba15 Se10 3.618690 1_545
Ba15 Se43 3.625713 1_555
Ba15 Se39 3.634193 1_555
Ba15 Se35 3.641023 1_555
Ba16 Se20 3.582479 1_555
Ba16 Se0 3.584393 1_455
Ba16 Se29 3.594011 1_555
Ba16 Se47 3.594483 1_555
Ba16 Se2 3.599921 1_455
Ba16 Se24 3.602556 1_555
Ba16 Se44 3.606336 1_555
Ba16 Se37 3.608655 1_555
Ba16 Se51 3.612183 1_555
Ba16 Se50 3.618478 1_555
Ba16 Se40 3.618868 1_555
Ba16 Se54 3.620063 1_555
Ba17 Se58 3.527028 1_555
Ba17 Se56 3.528472 1_556
Ba17 Se27 3.581024 1_455
Ba17 Se55 3.591935 1_555
Ba17 Se19 3.615819 1_455
Ba17 Se22 3.617861 1_455
Ba17 Se9 3.622764 1_455
Ba17 Se52 3.625988 1_556
Ba17 Se54 3.629026 1_555
Ba17 Se51 3.634157 1_555
Ba17 Se2 3.702826 1_455
Ba17 Se47 3.712128 1_555
Ba18 Se56 3.503318 1_556
Ba18 Se25 3.562233 1_545
Ba18 Se55 3.587949 1_555
Ba18 Se34 3.590993 1_556
Ba18 Se21 3.598735 1_546
Ba18 Se52 3.606371 1_556
Ba18 Se53 3.606628 1_556
Ba18 Se38 3.608573 1_555
Ba18 Se31 3.636426 1_555
Ba18 Se51 3.654199 1_555
Ba18 Se49 3.657974 1_556
Ba18 Se46 3.692818 1_555
Ba19 Se58 3.487417 1_555
Ba19 Se32 3.566490 1_545
Ba19 Se55 3.576701 1_555
Ba19 Se9 3.592585 1_455
Ba19 Se15 3.593011 1_455
Ba19 Se48 3.614660 1_555
Ba19 Se37 3.620599 1_545
Ba19 Se45 3.621503 1_555
Ba19 Se54 3.627847 1_555
Ba19 Se42 3.635876 1_555
Ba19 Se59 3.672241 1_555
Ba19 Se57 3.682005 1_555
Nb0 Se27 2.460121 1_554
Nb0 Se1 2.466085 1_545
Nb0 Se4 2.466802 1_544
Nb0 Se26 2.815666 1_555
Nb0 Se34 2.822251 1_555
Nb0 Se3 2.831117 1_545
Nb1 Se45 2.600810 1_565
Nb1 Se11 2.603951 1_555
Nb1 Se38 2.604794 1_565
Nb1 Se10 2.674435 1_555
Nb1 Se39 2.677290 1_565
Nb1 Se6 2.680014 1_555
Nb1 Nb8 2.963251 1_565
Nb1 Nb2 3.026458 1_565
Nb2 Se10 2.625177 1_545
Nb2 Se39 2.625314 1_555
Nb2 Se6 2.626914 1_545
Nb2 Se23 2.646613 1_555
Nb2 Se15 2.648816 1_555
Nb2 Se0 2.650018 1_545
Nb3 Se7 2.635221 1_554
Nb3 Se8 2.640967 1_555
Nb3 Se13 2.641987 1_555
Nb3 Se19 2.643286 1_554
Nb3 Se12 2.643540 1_555
Nb3 Se18 2.650253 1_555
Nb4 Se34 2.588886 1_565
Nb4 Se3 2.589203 1_555
Nb4 Se26 2.590694 1_565
Nb4 Se14 2.686358 1_555
Nb4 Se49 2.686948 1_565
Nb4 Se21 2.687806 1_555
Nb4 Nb5 2.963251 1_565
Nb5 Se14 2.600810 1_545
Nb5 Se49 2.603951 1_555
Nb5 Se21 2.604794 1_545
Nb5 Se48 2.674435 1_555
Nb5 Se20 2.677290 1_545
Nb5 Se53 2.680014 1_555
Nb6 Se17 2.639089 1_555
Nb6 Se22 2.639575 1_555
Nb6 Se16 2.640640 1_555
Nb6 Se30 2.642100 1_555
Nb6 Se24 2.647909 1_555
Nb6 Se31 2.649541 1_555
Nb6 Nb7 2.976473 1_555
Nb7 Se30 2.636047 1_555
Nb7 Se5 2.638083 1_555
Nb7 Se16 2.638289 1_555
Nb7 Se9 2.645780 1_555
Nb7 Se22 2.645894 1_555
Nb7 Se2 2.649542 1_555
Nb8 Se25 2.588886 1_545
Nb8 Se55 2.589199 1_555
Nb8 Se32 2.590694 1_545
Nb8 Se45 2.686358 1_555
Nb8 Se11 2.686948 1_545
Nb8 Se38 2.687806 1_555
Nb9 Se33 2.460121 1_556
Nb9 Se58 2.466085 1_565
Nb9 Se56 2.466802 1_566
Nb9 Se32 2.815666 1_555
Nb9 Se25 2.822251 1_555
Nb9 Se55 2.831121 1_565
Nb10 Se43 2.639089 1_555
Nb10 Se36 2.639575 1_555
Nb10 Se42 2.640640 1_555
Nb10 Se29 2.642100 1_555
Nb10 Se35 2.647909 1_555
Nb10 Se28 2.649541 1_555
Nb10 Nb17 2.976473 1_555
Nb10 Nb11 3.002773 1_555
Nb11 Se8 2.638186 1_555
Nb11 Se12 2.640332 1_555
Nb11 Se28 2.642520 1_555
Nb11 Se35 2.643507 1_555
Nb11 Se18 2.643905 1_555
Nb11 Se43 2.653997 1_555
Nb11 Nb3 2.984164 1_555
Nb12 Se48 2.625177 1_565
Nb12 Se20 2.625314 1_555
Nb12 Se53 2.626914 1_565
Nb12 Se37 2.646613 1_555
Nb12 Se44 2.648816 1_555
Nb12 Se59 2.650018 1_565
Nb12 Nb13 2.994862 1_565
Nb12 Nb5 3.026458 1_565
Nb13 Se44 2.636927 1_545
Nb13 Se15 2.636927 1_455
Nb13 Se59 2.638692 1_555
Nb13 Se0 2.638692 1_445
Nb13 Se37 2.639045 1_545
Nb13 Se23 2.639045 1_455
Nb13 Nb2 2.994862 1_455
Nb14 Se52 2.635221 1_556
Nb14 Se51 2.640967 1_555
Nb14 Se47 2.641987 1_555
Nb14 Se41 2.643286 1_556
Nb14 Se46 2.643540 1_555
Nb14 Se40 2.650253 1_555
Nb14 Nb15 2.984164 1_555
Nb14 Nb18 2.984906 1_556
Nb15 Se51 2.638186 1_555
Nb15 Se46 2.640332 1_555
Nb15 Se31 2.642520 1_555
Nb15 Se24 2.643507 1_555
Nb15 Se40 2.643905 1_555
Nb15 Se17 2.653997 1_555
Nb15 Nb6 3.002773 1_555
Nb16 Se2 2.640537 1_455
Nb16 Se57 2.640537 1_555
Nb16 Se50 2.641186 1_555
Nb16 Se9 2.641186 1_455
Nb16 Se5 2.644496 1_455
Nb16 Se54 2.644496 1_555
Nb16 Nb17 2.992902 1_555
Nb16 Nb7 2.992902 1_455
Nb17 Se29 2.636047 1_555
Nb17 Se54 2.638083 1_555
Nb17 Se42 2.638289 1_555
Nb17 Se50 2.645780 1_555
Nb17 Se36 2.645894 1_555
Nb17 Se57 2.649542 1_555
Nb18 Se7 2.640074 1_454
Nb18 Se52 2.640074 1_555
Nb18 Se13 2.640436 1_455
Nb18 Se47 2.640436 1_554
Nb18 Se41 2.641312 1_555
Nb18 Se19 2.641312 1_454
Nb18 Nb3 2.984906 1_455
Se0 Se47 3.466227 1_655
Se0 Se2 3.469641 1_555
Se1 Se50 3.469321 1_655
Se1 Se44 3.477781 1_655
Se2 Se47 3.462882 1_655
Se3 Se5 3.479981 1_555
Se3 Se8 3.480687 1_555
Se4 Se7 3.465989 1_555
Se4 Se6 3.480006 1_555
Se5 Se8 3.451610 1_555
Se6 Se7 3.463455 1_555
Se10 Se16 3.455083 1_555
Se10 Se14 3.461848 1_555
Se11 Se17 3.454223 1_555
Se11 Se12 3.460204 1_556
Se12 Se17 3.457762 1_554
Se13 Se57 3.462882 1_655
Se13 Se59 3.466227 1_655
Se14 Se16 3.449746 1_555
Se15 Se9 3.463390 1_555
Se15 Se58 3.477781 1_655
Se18 Se23 3.457626 1_555
Se18 Se26 3.483909 1_555
Se19 Se22 3.459551 1_555
Se19 Se27 3.471356 1_555
Se20 Se29 3.467066 1_555
Se20 Se24 3.469399 1_555
Se21 Se28 3.450884 1_555
Se21 Se25 3.474940 1_554
Se22 Se27 3.469602 1_555
Se23 Se26 3.484128 1_555
Se24 Se29 3.463311 1_555
Se25 Se28 3.480421 1_556
Se30 Se35 3.463311 1_555
Se30 Se39 3.467066 1_555
Se31 Se38 3.450884 1_555
Se31 Se34 3.480421 1_556
Se32 Se40 3.483909 1_555
Se32 Se37 3.484128 1_555
Se33 Se36 3.469602 1_555
Se33 Se41 3.471356 1_555
Se34 Se38 3.474940 1_554
Se35 Se39 3.469399 1_555
Se36 Se41 3.459551 1_555
Se37 Se40 3.457626 1_555
Se42 Se45 3.449746 1_555
Se42 Se48 3.455083 1_555
Se43 Se49 3.454223 1_555
Se43 Se46 3.457762 1_554
Se44 Se50 3.463390 1_555
Se45 Se48 3.461848 1_555
Se46 Se49 3.460204 1_556
Se51 Se54 3.451610 1_555
Se51 Se55 3.480694 1_555
Se52 Se53 3.463455 1_555
Se52 Se56 3.465989 1_555
Se53 Se56 3.480006 1_555
Se54 Se55 3.479974 1_555
Se57 Se59 3.469641 1_555
Se58 Se9 3.469321 1_455
