# generated using pymatgen
data_SrSi2(BO4)2
_symmetry_space_group_name_H-M   'P 1'
_cell_length_a   7.98620200
_cell_length_b   8.28775700
_cell_length_c   9.03232400
_cell_angle_alpha   90.00000000
_cell_angle_beta   90.00000000
_cell_angle_gamma   90.00000000
_symmetry_Int_Tables_number   1
_chemical_formula_structural   SrSi2(BO4)2
_chemical_formula_sum   'Sr4 Si8 B8 O32'
_cell_volume   597.82876502
_cell_formula_units_Z   4
loop_
 _symmetry_equiv_pos_site_id
 _symmetry_equiv_pos_as_xyz
  1  'x, y, z'
loop_
 _atom_site_type_symbol
 _atom_site_label
 _atom_site_symmetry_multiplicity
 _atom_site_fract_x
 _atom_site_fract_y
 _atom_site_fract_z
 _atom_site_occupancy
  Sr  Sr0  1  0.25000000  0.89166800  0.57644500  1
  Sr  Sr1  1  0.75000000  0.10833200  0.42355500  1
  Sr  Sr2  1  0.25000000  0.39166800  0.92355500  1
  Sr  Sr3  1  0.75000000  0.60833200  0.07644500  1
  Si  Si0  1  0.05767800  0.43748600  0.30930800  1
  Si  Si1  1  0.55767800  0.56251400  0.69069200  1
  Si  Si2  1  0.44232200  0.93748600  0.19069200  1
  Si  Si3  1  0.94232200  0.06251400  0.80930800  1
  Si  Si4  1  0.94232200  0.56251400  0.69069200  1
  Si  Si5  1  0.44232200  0.43748600  0.30930800  1
  Si  Si6  1  0.55767800  0.06251400  0.80930800  1
  Si  Si7  1  0.05767800  0.93748600  0.19069200  1
  B  B0  1  0.91852000  0.73265400  0.41463400  1
  B  B1  1  0.91852000  0.23265400  0.08536600  1
  B  B2  1  0.41852000  0.76734600  0.91463400  1
  B  B3  1  0.58148000  0.73265400  0.41463400  1
  B  B4  1  0.08148000  0.26734600  0.58536600  1
  B  B5  1  0.41852000  0.26734600  0.58536600  1
  B  B6  1  0.58148000  0.23265400  0.08536600  1
  B  B7  1  0.08148000  0.76734600  0.91463400  1
  O  O0  1  0.25000000  0.69907000  0.91453900  1
  O  O1  1  0.75000000  0.80093000  0.41453900  1
  O  O2  1  0.25000000  0.19907000  0.58546100  1
  O  O3  1  0.75000000  0.30093000  0.08546100  1
  O  O4  1  0.75000000  0.99677100  0.82609800  1
  O  O5  1  0.25000000  0.00322900  0.17390200  1
  O  O6  1  0.75000000  0.49677100  0.67390200  1
  O  O7  1  0.25000000  0.50322900  0.32609800  1
  O  O8  1  0.92807800  0.08953400  0.18118500  1
  O  O9  1  0.42807800  0.91046600  0.81881500  1
  O  O10  1  0.57192200  0.58953400  0.31881500  1
  O  O11  1  0.07192200  0.41046600  0.68118500  1
  O  O12  1  0.01335200  0.80190300  0.06533900  1
  O  O13  1  0.51335200  0.19809700  0.93466100  1
  O  O14  1  0.48664800  0.30190300  0.43466100  1
  O  O15  1  0.98664800  0.69809700  0.56533900  1
  O  O16  1  0.98664800  0.19809700  0.93466100  1
  O  O17  1  0.48664800  0.80190300  0.06533900  1
  O  O18  1  0.51335200  0.69809700  0.56533900  1
  O  O19  1  0.01335200  0.30190300  0.43466100  1
  O  O20  1  0.03430900  0.86387500  0.35835700  1
  O  O21  1  0.53430900  0.13612500  0.64164300  1
  O  O22  1  0.46569100  0.36387500  0.14164300  1
  O  O23  1  0.96569100  0.63612500  0.85835700  1
  O  O24  1  0.96569100  0.13612500  0.64164300  1
  O  O25  1  0.46569100  0.86387500  0.35835700  1
  O  O26  1  0.53430900  0.63612500  0.85835700  1
  O  O27  1  0.03430900  0.36387500  0.14164300  1
  O  O28  1  0.92807800  0.58953400  0.31881500  1
  O  O29  1  0.42807800  0.41046600  0.68118500  1
  O  O30  1  0.57192200  0.08953400  0.18118500  1
  O  O31  1  0.07192200  0.91046600  0.81881500  1
loop_
_geom_bond_atom_site_label_1
_geom_bond_atom_site_label_2
_geom_bond_distance
_geom_bond_site_symmetry_2
B0 O1 1.459953 1_555
B0 O28 1.470306 1_555
B0 O15 1.493641 1_555
B0 O20 1.515320 1_655
B1 O3 1.459953 1_555
B1 O8 1.470306 1_555
B1 O16 1.493641 1_554
B1 O27 1.515320 1_655
B2 O0 1.459953 1_555
B2 O9 1.470306 1_555
B2 O17 1.493641 1_556
B2 O26 1.515320 1_555
B3 O1 1.459953 1_555
B3 O10 1.470306 1_555
B3 O18 1.493641 1_555
B3 O25 1.515320 1_555
B4 O2 1.459953 1_555
B4 O11 1.470306 1_555
B4 O19 1.493641 1_555
B4 O24 1.515320 1_455
B5 O2 1.459953 1_555
B5 O29 1.470306 1_555
B5 O14 1.493641 1_555
B5 O21 1.515320 1_555
B6 O3 1.459953 1_555
B6 O30 1.470306 1_555
B6 O13 1.493641 1_554
B6 O22 1.515320 1_555
B7 O0 1.459953 1_555
B7 O31 1.470306 1_555
B7 O12 1.493641 1_556
B7 O23 1.515320 1_455
O0 Sr2 2.548974 1_555
O1 Sr1 2.548974 1_565
O2 Sr0 2.548974 1_545
O3 Sr3 2.548974 1_555
O4 Si3 1.636744 1_565
O4 Si6 1.636744 1_565
O5 Si7 1.636744 1_545
O5 Si2 1.636744 1_545
O6 Si1 1.636744 1_555
O6 Si4 1.636744 1_555
O7 Si5 1.636744 1_555
O7 Si0 1.636744 1_555
O8 Si7 1.632963 1_645
O8 Sr1 2.615200 1_555
O9 Si6 1.632963 1_565
O9 Sr0 2.615200 1_555
O10 Si5 1.632963 1_555
O10 Sr3 2.615200 1_555
O11 Si4 1.632963 1_455
O11 Sr2 2.615200 1_555
O12 Si7 1.633986 1_555
O12 Sr3 2.647096 1_455
O13 Si6 1.633986 1_555
O13 Sr2 2.647096 1_555
O14 Si5 1.633986 1_555
O14 Sr1 2.647096 1_555
O15 Si4 1.633986 1_555
O15 Sr0 2.647096 1_655
O16 Si3 1.633986 1_555
O16 Sr2 2.647096 1_655
O17 Si2 1.633986 1_555
O17 Sr3 2.647096 1_555
O18 Si1 1.633986 1_555
O18 Sr0 2.647096 1_555
O19 Si0 1.633986 1_555
O19 Sr1 2.647096 1_455
O20 Si7 1.643301 1_555
O20 Sr0 2.626884 1_555
O20 Sr1 3.099494 1_465
O21 Si6 1.643301 1_555
O21 Sr1 2.626884 1_555
O21 Sr0 3.099494 1_545
O22 Si5 1.643301 1_555
O22 Sr2 2.626884 1_554
O22 Sr3 3.099494 1_555
O23 Si4 1.643301 1_555
O23 Sr3 2.626884 1_556
O23 Sr2 3.099494 1_655
O24 Si3 1.643301 1_555
O24 Sr1 2.626884 1_555
O24 Sr0 3.099494 1_645
O25 Si2 1.643301 1_555
O25 Sr0 2.626884 1_555
O25 Sr1 3.099494 1_565
O26 Si1 1.643301 1_555
O26 Sr3 2.626884 1_556
O26 Sr2 3.099494 1_555
O27 Si0 1.643301 1_555
O27 Sr2 2.626884 1_554
O27 Sr3 3.099494 1_455
O28 Si0 1.632963 1_655
O28 Sr3 2.615200 1_555
O29 Si1 1.632963 1_555
O29 Sr2 2.615200 1_555
O30 Si2 1.632963 1_545
O30 Sr1 2.615200 1_555
O31 Si3 1.632963 1_465
O31 Sr0 2.615200 1_555
