# generated using pymatgen
data_Gd3NbO7
_symmetry_space_group_name_H-M   'P 1'
_cell_length_a   5.53962800
_cell_length_b   7.65351400
_cell_length_c   8.31726729
_cell_angle_alpha   65.55424193
_cell_angle_beta   90.00000000
_cell_angle_gamma   90.00000000
_symmetry_Int_Tables_number   1
_chemical_formula_structural   Gd3NbO7
_chemical_formula_sum   'Gd6 Nb2 O14'
_cell_volume   321.02007009
_cell_formula_units_Z   2
loop_
 _symmetry_equiv_pos_site_id
 _symmetry_equiv_pos_as_xyz
  1  'x, y, z'
loop_
 _atom_site_type_symbol
 _atom_site_label
 _atom_site_symmetry_multiplicity
 _atom_site_fract_x
 _atom_site_fract_y
 _atom_site_fract_z
 _atom_site_occupancy
  Gd  Gd0  1  0.00621400  0.00098400  0.00683000  1
  Gd  Gd1  1  0.99378600  0.50098400  0.00683000  1
  Gd  Gd2  1  0.54137400  0.09220600  0.24646900  1
  Gd  Gd3  1  0.45862600  0.59220600  0.24646900  1
  Gd  Gd4  1  0.53340700  0.40384700  0.76363500  1
  Gd  Gd5  1  0.46659300  0.90384700  0.76363500  1
  Nb  Nb0  1  0.99112600  0.73856000  0.50712000  1
  Nb  Nb1  1  0.00887400  0.23856000  0.50712000  1
  O  O0  1  0.78302100  0.25014400  0.00271300  1
  O  O1  1  0.19132200  0.85175000  0.29909000  1
  O  O2  1  0.74330800  0.56607800  0.50507500  1
  O  O3  1  0.21697900  0.75014400  0.00271300  1
  O  O4  1  0.33487100  0.35711600  0.13964900  1
  O  O5  1  0.30912200  0.14939000  0.82649900  1
  O  O6  1  0.80867800  0.35175000  0.29909000  1
  O  O7  1  0.79377100  0.95124800  0.48884300  1
  O  O8  1  0.25669200  0.06607800  0.50507500  1
  O  O9  1  0.19814300  0.64366400  0.71034800  1
  O  O10  1  0.69087800  0.64939000  0.82649900  1
  O  O11  1  0.66512900  0.85711600  0.13964900  1
  O  O12  1  0.20622900  0.45124800  0.48884300  1
  O  O13  1  0.80185700  0.14366400  0.71034800  1
loop_
_geom_bond_atom_site_label_1
_geom_bond_atom_site_label_2
_geom_bond_distance
_geom_bond_site_symmetry_2
Gd0 O5 2.223819 1_554
Gd0 O11 2.235209 1_445
Gd0 O3 2.259300 1_545
Gd0 O0 2.261036 1_455
Gd0 O1 2.442734 1_545
Gd0 O13 2.515168 1_454
Gd1 O10 2.223819 1_554
Gd1 O4 2.235209 1_655
Gd1 O0 2.259300 1_555
Gd1 O3 2.261036 1_655
Gd1 O6 2.442734 1_555
Gd1 O9 2.515168 1_654
Gd2 O4 2.172050 1_555
Gd2 O0 2.309774 1_555
Gd2 O7 2.320043 1_545
Gd2 O11 2.412416 1_545
Gd2 O1 2.583035 1_545
Gd2 O8 2.607178 1_555
Gd2 O6 2.655118 1_555
Gd3 O11 2.172050 1_555
Gd3 O3 2.309774 1_555
Gd3 O12 2.320043 1_555
Gd3 O4 2.412416 1_555
Gd3 O6 2.583035 1_555
Gd3 O2 2.607178 1_555
Gd3 O1 2.655118 1_555
Gd4 O5 2.183350 1_555
Gd4 O2 2.304001 1_555
Gd4 O0 2.305184 1_556
Gd4 O10 2.319318 1_555
Gd4 O9 2.518200 1_555
Gd4 O13 2.665281 1_555
Gd4 O12 2.820267 1_555
Gd5 O10 2.183350 1_555
Gd5 O8 2.304001 1_565
Gd5 O3 2.305184 1_556
Gd5 O5 2.319318 1_565
Gd5 O13 2.518200 1_565
Gd5 O9 2.665281 1_555
Gd5 O7 2.820267 1_555
Nb0 O2 1.909490 1_555
Nb0 O7 1.913979 1_555
Nb0 O9 1.919292 1_655
Nb0 O1 1.932233 1_655
Nb0 O12 2.560279 1_655
Nb1 O8 1.909490 1_555
Nb1 O12 1.913979 1_555
Nb1 O13 1.919292 1_455
Nb1 O6 1.932233 1_455
Nb1 O7 2.560279 1_445
O0 O11 2.817175 1_545
O0 O10 2.835293 1_554
O0 O13 2.868493 1_554
O0 O6 2.878881 1_555
O0 O4 2.983696 1_555
O1 O3 2.878881 1_555
O1 O11 2.933311 1_555
O3 O4 2.817175 1_555
O3 O5 2.835293 1_564
O3 O9 2.868493 1_554
O4 O6 2.933311 1_555
O4 O8 2.963692 1_555
O10 O7 2.859939 1_555
O10 O9 2.901857 1_555
O10 O9 2.977695 1_655
O11 O2 2.963692 1_555
O11 O3 2.983696 1_555
O12 O5 2.859939 1_555
O13 O5 2.901857 1_555
O13 O5 2.977695 1_655
