# generated using pymatgen
data_Ti3Fe5O12
_symmetry_space_group_name_H-M   'P 1'
_cell_length_a   5.53278800
_cell_length_b   7.57800918
_cell_length_c   10.28086120
_cell_angle_alpha   89.94873124
_cell_angle_beta   89.74808607
_cell_angle_gamma   83.52330796
_symmetry_Int_Tables_number   1
_chemical_formula_structural   Ti3Fe5O12
_chemical_formula_sum   'Ti6 Fe10 O24'
_cell_volume   428.29577847
_cell_formula_units_Z   2
loop_
 _symmetry_equiv_pos_site_id
 _symmetry_equiv_pos_as_xyz
  1  'x, y, z'
loop_
 _atom_site_type_symbol
 _atom_site_label
 _atom_site_symmetry_multiplicity
 _atom_site_fract_x
 _atom_site_fract_y
 _atom_site_fract_z
 _atom_site_occupancy
  Ti  Ti0  1  0.28997100  0.14284900  0.49516100  1
  Ti  Ti1  1  0.79774900  0.64496100  0.25525600  1
  Ti  Ti2  1  0.20225100  0.35503900  0.74474400  1
  Ti  Ti3  1  0.28625500  0.14280900  0.99961000  1
  Ti  Ti4  1  0.71002900  0.85715100  0.50483900  1
  Ti  Ti5  1  0.71374500  0.85719100  0.00039000  1
  Fe  Fe0  1  0.70336300  0.35668000  0.00276600  1
  Fe  Fe1  1  0.79068700  0.64969300  0.75067200  1
  Fe  Fe2  1  0.20527000  0.84991600  0.74751300  1
  Fe  Fe3  1  0.29663700  0.64332000  0.99723400  1
  Fe  Fe4  1  0.71073900  0.35416500  0.50058300  1
  Fe  Fe5  1  0.78869200  0.14865200  0.74935500  1
  Fe  Fe6  1  0.21130800  0.85134800  0.25064500  1
  Fe  Fe7  1  0.28926100  0.64583500  0.49941700  1
  Fe  Fe8  1  0.79473000  0.15008400  0.25248700  1
  Fe  Fe9  1  0.20931300  0.35030700  0.24932800  1
  O  O0  1  0.64736000  0.59895700  0.92405700  1
  O  O1  1  0.00816400  0.24999700  0.91202000  1
  O  O2  1  0.16283700  0.58874200  0.82638400  1
  O  O3  1  0.16076900  0.10799300  0.67028900  1
  O  O4  1  0.35155300  0.90952700  0.93085300  1
  O  O5  1  0.51551200  0.75286000  0.64901400  1
  O  O6  1  0.48274800  0.25717500  0.85061200  1
  O  O7  1  0.65128700  0.08714700  0.56722800  1
  O  O8  1  0.65492300  0.60625100  0.41289200  1
  O  O9  1  0.84652900  0.89439400  0.83884700  1
  O  O10  1  0.86257900  0.41037800  0.68276400  1
  O  O11  1  0.01586600  0.23953200  0.40187400  1
  O  O12  1  0.98413400  0.76046800  0.59812600  1
  O  O13  1  0.13742100  0.58962200  0.31723600  1
  O  O14  1  0.15347100  0.10560600  0.16115300  1
  O  O15  1  0.34507700  0.39374900  0.58710800  1
  O  O16  1  0.34871300  0.91285300  0.43277200  1
  O  O17  1  0.51725200  0.74282500  0.14938800  1
  O  O18  1  0.48448800  0.24714000  0.35098600  1
  O  O19  1  0.64844700  0.09047300  0.06914700  1
  O  O20  1  0.83923100  0.89200700  0.32971100  1
  O  O21  1  0.83716300  0.41125800  0.17361600  1
  O  O22  1  0.99183600  0.75000300  0.08798000  1
  O  O23  1  0.35264000  0.40104300  0.07594300  1
loop_
_geom_bond_atom_site_label_1
_geom_bond_atom_site_label_2
_geom_bond_distance
_geom_bond_site_symmetry_2
Fe0 O21 1.971327 1_555
Fe0 O0 1.998206 1_554
Fe0 O1 2.011929 1_654
Fe0 O23 2.070000 1_555
Fe0 O6 2.175314 1_554
Fe0 O19 2.182116 1_555
Fe1 O5 1.940484 1_555
Fe1 O10 1.942065 1_555
Fe1 O0 2.002316 1_555
Fe1 O9 2.119092 1_555
Fe1 O12 2.120232 1_555
Fe1 O2 2.204022 1_655
Fe2 O5 2.052812 1_555
Fe2 O3 2.099061 1_565
Fe2 O4 2.123524 1_555
Fe2 O12 2.126184 1_455
Fe2 O2 2.174866 1_555
Fe2 O9 2.183609 1_455
Fe3 O2 1.971327 1_555
Fe3 O23 1.998206 1_556
Fe3 O22 2.011929 1_456
Fe3 O0 2.070000 1_555
Fe3 O17 2.175314 1_556
Fe3 O4 2.182116 1_555
Fe4 O11 2.071271 1_655
Fe4 O8 2.103260 1_555
Fe4 O10 2.119262 1_555
Fe4 O7 2.194939 1_555
Fe4 O15 2.195924 1_555
Fe4 O18 2.199632 1_555
Fe5 O6 2.072998 1_555
Fe5 O7 2.096466 1_555
Fe5 O9 2.126420 1_545
Fe5 O10 2.178890 1_555
Fe5 O3 2.199149 1_655
Fe5 O1 2.256450 1_655
Fe6 O17 2.072998 1_555
Fe6 O16 2.096466 1_555
Fe6 O14 2.126420 1_565
Fe6 O13 2.178890 1_555
Fe6 O20 2.199149 1_455
Fe6 O22 2.256450 1_455
Fe7 O12 2.071271 1_455
Fe7 O15 2.103260 1_555
Fe7 O13 2.119262 1_555
Fe7 O16 2.194939 1_555
Fe7 O8 2.195924 1_555
Fe7 O5 2.199632 1_555
Fe8 O18 2.052812 1_555
Fe8 O20 2.099061 1_545
Fe8 O19 2.123524 1_555
Fe8 O11 2.126184 1_655
Fe8 O21 2.174866 1_555
Fe8 O14 2.183609 1_655
Fe9 O18 1.940484 1_555
Fe9 O13 1.942065 1_555
Fe9 O23 2.002316 1_555
Fe9 O14 2.119092 1_555
Fe9 O11 2.120232 1_555
Fe9 O21 2.204022 1_455
O0 Ti5 2.178912 1_556
O1 Ti3 1.888640 1_555
O1 Ti2 2.217753 1_555
O2 Ti2 1.949976 1_555
O3 Ti0 1.962877 1_555
O3 Ti2 2.060211 1_555
O4 Ti3 1.900335 1_565
O4 Ti5 2.125302 1_556
O5 Ti4 2.038544 1_555
O6 Ti2 1.974053 1_555
O6 Ti3 2.115431 1_555
O7 Ti4 1.851258 1_545
O7 Ti0 2.132033 1_555
O8 Ti1 1.837701 1_555
O8 Ti4 2.176717 1_555
O9 Ti5 1.847332 1_556
O10 Ti2 1.986465 1_655
O11 Ti0 1.875486 1_555
O12 Ti4 1.875486 1_555
O13 Ti1 1.986465 1_455
O14 Ti3 1.847332 1_554
O15 Ti2 1.837701 1_555
O15 Ti0 2.176717 1_555
O16 Ti0 1.851258 1_565
O16 Ti4 2.132033 1_555
O17 Ti1 1.974053 1_555
O17 Ti5 2.115431 1_555
O18 Ti0 2.038544 1_555
O19 Ti5 1.900335 1_545
O19 Ti3 2.125302 1_554
O20 Ti4 1.962877 1_555
O20 Ti1 2.060211 1_555
O21 Ti1 1.949976 1_555
O22 Ti5 1.888640 1_555
O22 Ti1 2.217753 1_555
O23 Ti3 2.178912 1_554
