# generated using pymatgen
data_Na2Sr3P4
_symmetry_space_group_name_H-M   'P 1'
_cell_length_a   9.06772600
_cell_length_b   9.47236700
_cell_length_c   13.50227216
_cell_angle_alpha   55.58565666
_cell_angle_beta   90.00000000
_cell_angle_gamma   90.00000000
_symmetry_Int_Tables_number   1
_chemical_formula_structural   Na2Sr3P4
_chemical_formula_sum   'Na8 Sr12 P16'
_cell_volume   956.75995929
_cell_formula_units_Z   4
loop_
 _symmetry_equiv_pos_site_id
 _symmetry_equiv_pos_as_xyz
  1  'x, y, z'
loop_
 _atom_site_type_symbol
 _atom_site_label
 _atom_site_symmetry_multiplicity
 _atom_site_fract_x
 _atom_site_fract_y
 _atom_site_fract_z
 _atom_site_occupancy
  Na  Na0  1  0.96259800  0.27886700  0.18575100  1
  Na  Na1  1  0.70956700  0.85103500  0.86281900  1
  Na  Na2  1  0.79043300  0.85103500  0.36281900  1
  Na  Na3  1  0.53740200  0.27886700  0.68575100  1
  Na  Na4  1  0.46259800  0.72113300  0.31424900  1
  Na  Na5  1  0.20956700  0.14896500  0.63718100  1
  Na  Na6  1  0.29043300  0.14896500  0.13718100  1
  Na  Na7  1  0.03740200  0.72113300  0.81424900  1
  Sr  Sr0  1  0.04742700  0.25135900  0.93397200  1
  Sr  Sr1  1  0.95373600  0.42692200  0.64468100  1
  Sr  Sr2  1  0.83509500  0.10594800  0.56482100  1
  Sr  Sr3  1  0.66490500  0.10594800  0.06482100  1
  Sr  Sr4  1  0.45257300  0.25135900  0.43397200  1
  Sr  Sr5  1  0.54626400  0.42692200  0.14468100  1
  Sr  Sr6  1  0.45373600  0.57307800  0.85531900  1
  Sr  Sr7  1  0.54742700  0.74864100  0.56602800  1
  Sr  Sr8  1  0.33509500  0.89405200  0.93517900  1
  Sr  Sr9  1  0.16490500  0.89405200  0.43517900  1
  Sr  Sr10  1  0.04626400  0.57307800  0.35531900  1
  Sr  Sr11  1  0.95257300  0.74864100  0.06602800  1
  P  P0  1  0.01700100  0.96083600  0.19263300  1
  P  P1  1  0.87881700  0.75933500  0.61220400  1
  P  P2  1  0.77502800  0.48301100  0.95689600  1
  P  P3  1  0.72955000  0.52210900  0.27698200  1
  P  P4  1  0.77045000  0.52210900  0.77698200  1
  P  P5  1  0.72497200  0.48301100  0.45689600  1
  P  P6  1  0.62118300  0.75933500  0.11220400  1
  P  P7  1  0.48299900  0.96083600  0.69263300  1
  P  P8  1  0.51700100  0.03916400  0.30736700  1
  P  P9  1  0.37881700  0.24066500  0.88779600  1
  P  P10  1  0.27502800  0.51698900  0.54310400  1
  P  P11  1  0.22955000  0.47789100  0.22301800  1
  P  P12  1  0.27045000  0.47789100  0.72301800  1
  P  P13  1  0.12118300  0.24066500  0.38779600  1
  P  P14  1  0.22497200  0.51698900  0.04310400  1
  P  P15  1  0.98299900  0.03916400  0.80736700  1
loop_
_geom_bond_atom_site_label_1
_geom_bond_atom_site_label_2
_geom_bond_distance
_geom_bond_site_symmetry_2
Na0 P13 2.919809 1_655
Na0 P0 3.001794 1_645
Na0 P2 3.070247 1_554
Na0 P14 3.089817 1_655
Na0 P11 3.277056 1_655
Na0 Na6 3.419554 1_655
Na0 Sr0 3.635664 1_654
Na0 Na2 3.691163 1_545
Na0 Sr11 3.780450 1_555
Na0 P3 3.807890 1_555
Na0 Sr5 3.955680 1_555
Na1 P7 2.807377 1_555
Na1 P15 2.894046 1_565
Na1 P2 3.018793 1_555
Na1 P6 3.070694 1_556
Na1 Sr11 3.211919 1_556
Na1 Na7 3.419554 1_655
Na1 Sr2 3.511949 1_565
Na1 Sr6 3.553217 1_555
Na1 Sr8 3.619500 1_555
Na1 Na3 3.691163 1_565
Na2 P0 2.807377 1_655
Na2 P8 2.894046 1_565
Na2 P5 3.018793 1_555
Na2 P1 3.070694 1_555
Na2 Sr7 3.211919 1_555
Na2 Na4 3.419554 1_555
Na2 Sr3 3.511949 1_565
Na2 Sr10 3.553217 1_655
Na2 Sr9 3.619500 1_655
Na3 P9 2.919809 1_555
Na3 P7 3.001794 1_545
Na3 P5 3.070247 1_555
Na3 P10 3.089817 1_555
Na3 P12 3.277056 1_555
Na3 Na5 3.419554 1_555
Na3 Sr4 3.635664 1_555
Na3 Sr7 3.780450 1_555
Na3 P4 3.807890 1_555
Na3 Sr1 3.955680 1_555
Na4 P6 2.919809 1_555
Na4 P8 3.001794 1_565
Na4 P10 3.070247 1_555
Na4 P5 3.089817 1_555
Na4 P3 3.277056 1_555
Na4 Sr7 3.635664 1_555
Na4 Na6 3.691163 1_565
Na4 Sr4 3.780450 1_555
Na4 P11 3.807890 1_555
Na4 Sr10 3.955680 1_555
Na5 P15 2.807377 1_455
Na5 P7 2.894046 1_545
Na5 P10 3.018793 1_555
Na5 P13 3.070694 1_555
Na5 Sr4 3.211919 1_555
Na5 Sr8 3.511949 1_545
Na5 Sr1 3.553217 1_455
Na5 Sr2 3.619500 1_455
Na5 Na7 3.691163 1_545
Na6 P8 2.807377 1_555
Na6 P0 2.894046 1_545
Na6 P14 3.018793 1_555
Na6 P9 3.070694 1_554
Na6 Sr0 3.211919 1_554
Na6 Sr9 3.511949 1_545
Na6 Sr5 3.553217 1_555
Na6 Sr3 3.619500 1_555
Na7 P1 2.919809 1_455
Na7 P15 3.001794 1_465
Na7 P14 3.070247 1_556
Na7 P2 3.089817 1_455
Na7 P4 3.277056 1_455
Na7 Sr11 3.635664 1_456
Na7 Sr0 3.780450 1_555
Na7 P12 3.807890 1_555
Na7 Sr6 3.955680 1_555
Sr0 Sr1 3.376730 1_455
Sr0 Sr3 3.781420 1_456
Sr1 Sr10 3.430961 1_655
Sr2 Sr4 3.781420 1_555
Sr4 Sr5 3.376730 1_555
Sr5 Sr6 3.430961 1_554
Sr6 Sr7 3.376730 1_555
Sr7 Sr9 3.781420 1_555
Sr10 Sr11 3.376730 1_455
Sr11 Sr8 3.781420 1_654
P0 Sr0 2.997158 1_564
P0 Sr10 3.044103 1_555
P0 Sr9 3.253033 1_555
P0 Sr11 3.344766 1_455
P0 Sr3 3.518476 1_465
P1 P4 2.305192 1_555
P1 Sr2 2.995304 1_565
P1 Sr1 3.001268 1_555
P1 Sr7 3.082227 1_555
P1 Sr9 3.259389 1_655
P2 P4 2.241246 1_555
P2 Sr5 3.080821 1_556
P2 Sr6 3.126360 1_555
P2 Sr3 3.161385 1_556
P2 Sr0 3.432134 1_655
P2 Sr11 3.909609 1_556
P3 P5 2.241246 1_555
P3 P6 2.305192 1_555
P3 Sr5 2.930338 1_555
P3 Sr11 3.146212 1_555
P3 Sr10 3.190107 1_655
P3 Sr4 3.351651 1_555
P3 Sr2 3.773945 1_555
P4 Sr1 2.930338 1_555
P4 Sr7 3.146212 1_555
P4 Sr6 3.190107 1_555
P4 Sr0 3.351651 1_655
P4 Sr3 3.773945 1_556
P5 Sr1 3.080821 1_555
P5 Sr10 3.126360 1_655
P5 Sr2 3.161385 1_555
P5 Sr4 3.432134 1_555
P5 Sr7 3.909609 1_555
P6 Sr3 2.995304 1_565
P6 Sr5 3.001268 1_555
P6 Sr11 3.082227 1_555
P6 Sr8 3.259389 1_554
P7 Sr4 2.997158 1_565
P7 Sr6 3.044103 1_555
P7 Sr8 3.253033 1_555
P7 Sr7 3.344766 1_555
P7 Sr2 3.518476 1_565
P8 Sr7 2.997158 1_545
P8 Sr5 3.044103 1_555
P8 Sr3 3.253033 1_555
P8 Sr4 3.344766 1_555
P8 Sr9 3.518476 1_545
P9 Sr8 2.995304 1_545
P9 Sr6 3.001268 1_555
P9 Sr0 3.082227 1_555
P9 Sr3 3.259389 1_556
P10 P12 2.241246 1_555
P10 Sr10 3.080821 1_555
P10 Sr1 3.126360 1_455
P10 Sr9 3.161385 1_555
P10 Sr7 3.432134 1_555
P10 Sr4 3.909609 1_555
P11 P14 2.241246 1_555
P11 P13 2.305192 1_555
P11 Sr10 2.930338 1_555
P11 Sr4 3.146212 1_555
P11 Sr5 3.190107 1_555
P11 Sr11 3.351651 1_455
P11 Sr8 3.773945 1_554
P12 P9 2.305192 1_555
P12 Sr6 2.930338 1_555
P12 Sr0 3.146212 1_555
P12 Sr1 3.190107 1_455
P12 Sr7 3.351651 1_555
P12 Sr9 3.773945 1_555
P13 Sr9 2.995304 1_545
P13 Sr10 3.001268 1_555
P13 Sr4 3.082227 1_555
P13 Sr2 3.259389 1_455
P14 Sr6 3.080821 1_554
P14 Sr5 3.126360 1_555
P14 Sr8 3.161385 1_554
P14 Sr11 3.432134 1_455
P14 Sr0 3.909609 1_554
P15 Sr11 2.997158 1_546
P15 Sr1 3.044103 1_555
P15 Sr2 3.253033 1_555
P15 Sr0 3.344766 1_655
P15 Sr8 3.518476 1_645
