# generated using pymatgen
data_RbBiF4
_symmetry_space_group_name_H-M   'P 1'
_cell_length_a   4.31455000
_cell_length_b   4.32026739
_cell_length_c   21.92940580
_cell_angle_alpha   84.66900263
_cell_angle_beta   85.94514603
_cell_angle_gamma   64.48411610
_symmetry_Int_Tables_number   1
_chemical_formula_structural   RbBiF4
_chemical_formula_sum   'Rb3 Bi3 F12'
_cell_volume   367.08595145
_cell_formula_units_Z   3
loop_
 _symmetry_equiv_pos_site_id
 _symmetry_equiv_pos_as_xyz
  1  'x, y, z'
loop_
 _atom_site_type_symbol
 _atom_site_label
 _atom_site_symmetry_multiplicity
 _atom_site_fract_x
 _atom_site_fract_y
 _atom_site_fract_z
 _atom_site_occupancy
  Rb  Rb0  1  0.35347000  0.37152500  0.84391800  1
  Rb  Rb1  1  0.66954600  0.67101200  0.67356200  1
  Rb  Rb2  1  0.95402500  0.98173600  0.50201500  1
  Bi  Bi0  1  0.92838500  0.03612900  0.00364700  1
  Bi  Bi1  1  0.25994000  0.46706000  0.32348100  1
  Bi  Bi2  1  0.58660300  0.77675000  0.16561900  1
  F  F0  1  0.41223300  0.28410900  0.96862600  1
  F  F1  1  0.00690200  0.00527600  0.89930900  1
  F  F2  1  0.31505700  0.30677400  0.72661300  1
  F  F3  1  0.71665700  0.65111400  0.29893300  1
  F  F4  1  0.59871600  0.61744100  0.55761400  1
  F  F5  1  0.24120400  0.39293700  0.42132600  1
  F  F6  1  0.04426800  0.99510100  0.35046100  1
  F  F7  1  0.15423300  0.83309800  0.11293100  1
  F  F8  1  0.15318700  0.88603200  0.23097600  1
  F  F9  1  0.47831300  0.26449300  0.20322800  1
  F  F10  1  0.53382100  0.15289400  0.08510800  1
  F  F11  1  0.75877100  0.59985600  0.01796700  1
loop_
_geom_bond_atom_site_label_1
_geom_bond_atom_site_label_2
_geom_bond_distance
_geom_bond_site_symmetry_2
Bi0 F0 2.174967 1_554
Bi0 F11 2.267095 1_555
Bi0 F11 2.287471 1_545
Bi0 F1 2.296943 1_654
Bi0 F10 2.311113 1_555
Bi0 F7 2.581775 1_645
Bi0 F0 2.764558 1_654
Bi1 F5 2.140825 1_555
Bi1 F6 2.182723 1_555
Bi1 F3 2.215774 1_455
Bi1 F3 2.434216 1_555
Bi1 F8 2.516986 1_555
Bi1 F6 2.589591 1_545
Bi1 F9 2.823977 1_555
Bi2 F7 2.176141 1_555
Bi2 F9 2.181502 1_565
Bi2 F8 2.181754 1_555
Bi2 F10 2.239358 1_565
Bi2 F9 2.508668 1_555
Bi2 F7 2.730086 1_655
Bi2 F3 2.971708 1_555
F0 F10 2.604929 1_556
F0 F1 2.733255 1_655
F0 Rb0 2.740354 1_555
F0 F11 2.740438 1_456
F0 F11 2.743582 1_556
F0 F11 2.823418 1_546
F0 F1 3.057995 1_555
F0 F1 3.142919 1_565
F1 Rb0 2.763936 1_555
F1 Rb0 2.835818 1_545
F1 Rb0 2.865550 1_455
F2 Rb0 2.637626 1_555
F2 Rb1 2.765971 1_555
F2 Rb1 2.815797 1_455
F2 Rb1 2.821310 1_545
F3 F8 2.695716 1_555
F3 F6 2.736187 1_645
F3 F8 2.786940 1_655
F3 F6 2.798394 1_655
F3 F6 2.834725 1_555
F3 F9 3.067347 1_565
F4 Rb1 2.625320 1_555
F4 Rb2 2.787718 1_555
F4 Rb2 2.837629 1_455
F4 Rb2 2.847828 1_545
F5 F6 2.726896 1_555
F5 F6 2.834139 1_545
F5 Rb2 2.970583 1_445
F5 Rb2 2.991309 1_455
F5 Rb2 3.350243 1_545
F6 F8 2.678249 1_555
F6 Rb2 3.316809 1_455
F7 F8 2.619337 1_555
F7 F9 2.905023 1_555
F8 F9 2.546798 1_555
F8 F9 2.584925 1_565
F8 F9 2.736089 1_465
F10 F7 2.516851 1_645
F10 F7 2.571918 1_545
F10 F9 2.654115 1_555
F10 F11 2.696709 1_545
F10 F11 2.778991 1_555
F10 F7 2.781324 1_555
F11 F7 3.084299 1_555
