# generated using pymatgen
data_Ca14La6Mg3Ti17O60
_symmetry_space_group_name_H-M   'P 1'
_cell_length_a   5.48077900
_cell_length_b   5.54818228
_cell_length_c   38.92920874
_cell_angle_alpha   89.90334671
_cell_angle_beta   89.97609954
_cell_angle_gamma   89.91380095
_symmetry_Int_Tables_number   1
_chemical_formula_structural   Ca14La6Mg3Ti17O60
_chemical_formula_sum   'Ca14 La6 Mg3 Ti17 O60'
_cell_volume   1183.77030392
_cell_formula_units_Z   1
loop_
 _symmetry_equiv_pos_site_id
 _symmetry_equiv_pos_as_xyz
  1  'x, y, z'
loop_
 _atom_site_type_symbol
 _atom_site_label
 _atom_site_symmetry_multiplicity
 _atom_site_fract_x
 _atom_site_fract_y
 _atom_site_fract_z
 _atom_site_occupancy
  Ca  Ca0  1  0.98761800  0.03926200  0.14865800  1
  Ca  Ca1  1  0.98918500  0.03897700  0.94983200  1
  Ca  Ca2  1  0.51106500  0.53976600  0.14869100  1
  Ca  Ca3  1  0.51370500  0.54100000  0.94973800  1
  Ca  Ca4  1  0.48814000  0.45985400  0.04922800  1
  Ca  Ca5  1  0.48926000  0.45968800  0.24747200  1
  Ca  Ca6  1  0.48494300  0.45629700  0.64857000  1
  Ca  Ca7  1  0.48492000  0.45620700  0.44830700  1
  Ca  Ca8  1  0.48338600  0.45668700  0.85004200  1
  Ca  Ca9  1  0.01224600  0.96047300  0.04932600  1
  Ca  Ca10  1  0.00800600  0.96121000  0.24738100  1
  Ca  Ca11  1  0.01230800  0.96358300  0.64900900  1
  Ca  Ca12  1  0.01203200  0.96346600  0.44875100  1
  Ca  Ca13  1  0.01639000  0.96173200  0.85046100  1
  La  La0  1  0.99225400  0.03003700  0.35164000  1
  La  La1  1  0.99424600  0.02918500  0.55219800  1
  La  La2  1  0.99440100  0.02887400  0.75264500  1
  La  La3  1  0.50880500  0.53269100  0.35152000  1
  La  La4  1  0.51059200  0.53392000  0.55204900  1
  La  La5  1  0.51108600  0.53380300  0.75249100  1
  Mg  Mg0  1  0.50056800  0.00055300  0.60160600  1
  Mg  Mg1  1  0.50051600  0.00008000  0.40157300  1
  Mg  Mg2  1  0.50063900  0.00093600  0.80196600  1
  Ti  Ti0  1  0.00897600  0.50174600  0.99932400  1
  Ti  Ti1  1  0.99600600  0.49893600  0.09845500  1
  Ti  Ti2  1  0.99467400  0.49809800  0.19751800  1
  Ti  Ti3  1  0.99990200  0.50395800  0.29706100  1
  Ti  Ti4  1  0.00076900  0.49998700  0.40267800  1
  Ti  Ti5  1  0.00046700  0.50013200  0.60338800  1
  Ti  Ti6  1  0.00322800  0.50007100  0.69919300  1
  Ti  Ti7  1  0.00067000  0.50016700  0.80417100  1
  Ti  Ti8  1  0.50221100  0.99858200  0.09819900  1
  Ti  Ti9  1  0.49623300  0.00402700  0.29763600  1
  Ti  Ti10  1  0.50084700  0.00011000  0.49757500  1
  Ti  Ti11  1  0.50221700  0.00391300  0.99798700  1
  Ti  Ti12  1  0.50243600  0.00032600  0.69784200  1
  Ti  Ti13  1  0.50871000  0.99279500  0.89844200  1
  Ti  Ti14  1  0.48985200  0.99532600  0.19846800  1
  Ti  Ti15  1  0.00153900  0.50031600  0.49884700  1
  Ti  Ti16  1  0.99836500  0.49313500  0.90056600  1
  O  O0  1  0.91579000  0.52072400  0.05090400  1
  O  O1  1  0.91627300  0.52083700  0.24975400  1
  O  O2  1  0.90857100  0.52548800  0.45063000  1
  O  O3  1  0.90813800  0.52553500  0.65103600  1
  O  O4  1  0.91008100  0.52623300  0.85213600  1
  O  O5  1  0.78178600  0.78086900  0.10931200  1
  O  O6  1  0.77733700  0.77463600  0.30797600  1
  O  O7  1  0.77861600  0.77627000  0.70925200  1
  O  O8  1  0.77890100  0.77611200  0.50894200  1
  O  O9  1  0.78630200  0.78363800  0.19115100  1
  O  O10  1  0.78227400  0.78396900  0.91056100  1
  O  O11  1  0.78470400  0.77245000  0.39037900  1
  O  O12  1  0.78555800  0.77231900  0.59086300  1
  O  O13  1  0.78546200  0.77185500  0.79138700  1
  O  O14  1  0.78083800  0.78199900  0.99184400  1
  O  O15  1  0.71982000  0.28184100  0.10928600  1
  O  O16  1  0.72058900  0.28599100  0.19119400  1
  O  O17  1  0.72374000  0.27584100  0.30801500  1
  O  O18  1  0.72579000  0.28670600  0.39061000  1
  O  O19  1  0.72709200  0.28737000  0.59105100  1
  O  O20  1  0.72609600  0.27953000  0.50933600  1
  O  O21  1  0.72174100  0.28601400  0.91064900  1
  O  O22  1  0.71496300  0.28157500  0.99178500  1
  O  O23  1  0.72564300  0.27930600  0.70963700  1
  O  O24  1  0.72749800  0.28723400  0.79160800  1
  O  O25  1  0.58302400  0.02051200  0.05120100  1
  O  O26  1  0.58466900  0.02147300  0.24956400  1
  O  O27  1  0.59139500  0.02824600  0.65255000  1
  O  O28  1  0.59193900  0.02867100  0.45232300  1
  O  O29  1  0.59126000  0.02769100  0.85343800  1
  O  O30  1  0.42404200  0.98653900  0.34691200  1
  O  O31  1  0.41762100  0.98010900  0.15073700  1
  O  O32  1  0.42254900  0.98570500  0.54781600  1
  O  O33  1  0.42220700  0.98558700  0.74818200  1
  O  O34  1  0.41445800  0.97969800  0.95182700  1
  O  O35  1  0.27800300  0.71679100  0.00960700  1
  O  O36  1  0.28306300  0.71766500  0.09157400  1
  O  O37  1  0.27939100  0.71745700  0.29020700  1
  O  O38  1  0.28434600  0.72096300  0.20898300  1
  O  O39  1  0.27381800  0.70935400  0.60843600  1
  O  O40  1  0.27940400  0.71826000  0.49022500  1
  O  O41  1  0.27397300  0.70904700  0.40793700  1
  O  O42  1  0.27896800  0.71808900  0.69052000  1
  O  O43  1  0.27397700  0.70943800  0.80903500  1
  O  O44  1  0.28426000  0.72027300  0.89189300  1
  O  O45  1  0.21598500  0.21929300  0.00965300  1
  O  O46  1  0.22100100  0.21985500  0.20895700  1
  O  O47  1  0.21711700  0.21787600  0.09155900  1
  O  O48  1  0.20488200  0.22209500  0.40821300  1
  O  O49  1  0.20537700  0.22286100  0.60856500  1
  O  O50  1  0.21729300  0.22211200  0.69082700  1
  O  O51  1  0.21923900  0.21826500  0.29023600  1
  O  O52  1  0.21761500  0.22194100  0.49057700  1
  O  O53  1  0.20542700  0.22289800  0.80921800  1
  O  O54  1  0.21519900  0.22276500  0.89203300  1
  O  O55  1  0.08501200  0.47931400  0.15053000  1
  O  O56  1  0.07620200  0.48651400  0.34818800  1
  O  O57  1  0.07780200  0.48895700  0.54852000  1
  O  O58  1  0.07767100  0.48892300  0.74893700  1
  O  O59  1  0.08479600  0.48050900  0.95121400  1
loop_
_geom_bond_atom_site_label_1
_geom_bond_atom_site_label_2
_geom_bond_distance
_geom_bond_site_symmetry_2
Ca0 O31 2.380395 1_645
Ca0 O5 2.384899 1_545
Ca0 O9 2.441426 1_545
Ca0 O55 2.501134 1_655
Ca0 O15 2.510746 1_555
Ca0 O16 2.599494 1_555
Ca0 O47 2.738449 1_655
Ca0 O46 2.857381 1_655
Ca1 O34 2.354722 1_645
Ca1 O10 2.374562 1_545
Ca1 O14 2.450929 1_545
Ca1 O59 2.506562 1_655
Ca1 O21 2.518459 1_555
Ca1 O22 2.595598 1_555
Ca1 O54 2.762385 1_655
Ca1 O45 2.825466 1_656
Ca2 O55 2.360605 1_555
Ca2 O15 2.389780 1_555
Ca2 O16 2.455146 1_555
Ca2 O31 2.496848 1_555
Ca2 O5 2.517572 1_555
Ca2 O9 2.618073 1_555
Ca2 O36 2.733316 1_555
Ca2 O38 2.839972 1_555
Ca3 O21 2.370232 1_555
Ca3 O59 2.375750 1_555
Ca3 O22 2.440592 1_555
Ca3 O34 2.494671 1_555
Ca3 O10 2.511388 1_555
Ca3 O14 2.575567 1_555
Ca3 O44 2.762720 1_555
Ca3 O35 2.837849 1_556
Ca4 O0 2.369504 1_555
Ca4 O35 2.393064 1_555
Ca4 O36 2.455288 1_555
Ca4 O25 2.492704 1_555
Ca4 O45 2.528767 1_555
Ca4 O47 2.592486 1_555
Ca4 O22 2.743339 1_554
Ca4 O15 2.836373 1_555
Ca5 O38 2.365775 1_555
Ca5 O1 2.367057 1_555
Ca5 O37 2.477412 1_555
Ca5 O26 2.487332 1_555
Ca5 O46 2.488939 1_555
Ca5 O51 2.598494 1_555
Ca5 O16 2.708724 1_555
Ca5 O17 2.870089 1_555
Ca6 O3 2.353629 1_555
Ca6 O39 2.395923 1_555
Ca6 O27 2.449336 1_555
Ca6 O42 2.460198 1_555
Ca6 O49 2.542697 1_555
Ca6 O50 2.557872 1_555
Ca6 O19 2.766680 1_555
Ca6 O23 2.889114 1_555
Ca7 O2 2.355908 1_555
Ca7 O41 2.400746 1_555
Ca7 O28 2.447392 1_555
Ca7 O40 2.459076 1_555
Ca7 O48 2.548302 1_555
Ca7 O52 2.557340 1_555
Ca7 O18 2.770032 1_555
Ca7 O20 2.888502 1_555
Ca8 O4 2.372268 1_555
Ca8 O43 2.412731 1_555
Ca8 O44 2.446608 1_555
Ca8 O29 2.454976 1_555
Ca8 O54 2.552189 1_555
Ca8 O53 2.558114 1_555
Ca8 O24 2.801695 1_555
Ca8 O21 2.856794 1_555
Ca9 O25 2.376550 1_465
Ca9 O45 2.385401 1_565
Ca9 O47 2.453093 1_565
Ca9 O0 2.497851 1_455
Ca9 O35 2.517838 1_555
Ca9 O36 2.590642 1_555
Ca9 O14 2.758647 1_454
Ca9 O5 2.834617 1_455
Ca10 O26 2.345211 1_465
Ca10 O46 2.378199 1_565
Ca10 O51 2.484391 1_565
Ca10 O1 2.496752 1_455
Ca10 O38 2.510737 1_555
Ca10 O37 2.609448 1_555
Ca10 O9 2.692933 1_455
Ca10 O6 2.868369 1_455
Ca11 O27 2.338173 1_465
Ca11 O49 2.379814 1_565
Ca11 O50 2.446233 1_565
Ca11 O3 2.498476 1_455
Ca11 O39 2.556972 1_555
Ca11 O42 2.567322 1_555
Ca11 O12 2.794414 1_455
Ca11 O7 2.865976 1_455
Ca12 O28 2.334272 1_465
Ca12 O48 2.379527 1_565
Ca12 O52 2.447775 1_565
Ca12 O2 2.497041 1_455
Ca12 O41 2.564684 1_555
Ca12 O40 2.567795 1_555
Ca12 O11 2.802439 1_455
Ca12 O8 2.863029 1_455
Ca13 O29 2.360891 1_465
Ca13 O53 2.397108 1_565
Ca13 O54 2.432689 1_565
Ca13 O4 2.487081 1_455
Ca13 O44 2.557415 1_555
Ca13 O43 2.559881 1_555
Ca13 O13 2.831071 1_455
Ca13 O10 2.843697 1_455
La0 O11 2.367893 1_545
La0 O30 2.385513 1_645
La0 O6 2.509891 1_545
La0 O18 2.541939 1_555
La0 O56 2.578024 1_655
La0 O17 2.626417 1_555
La0 O48 2.712496 1_655
La0 O51 2.888831 1_655
La0 O56 3.052953 1_645
La1 O32 2.365553 1_645
La1 O12 2.366662 1_545
La1 O8 2.492931 1_545
La1 O19 2.546116 1_555
La1 O57 2.596061 1_655
La1 O20 2.619427 1_555
La1 O49 2.706021 1_655
La1 O52 2.896518 1_655
La1 O57 3.034995 1_645
La2 O33 2.362972 1_645
La2 O13 2.369742 1_545
La2 O7 2.496220 1_545
La2 O24 2.548423 1_555
La2 O58 2.597356 1_655
La2 O23 2.625169 1_555
La2 O53 2.713058 1_655
La2 O50 2.902749 1_655
La2 O58 3.033300 1_645
La3 O18 2.362673 1_555
La3 O56 2.388788 1_555
La3 O17 2.507636 1_555
La3 O11 2.521753 1_555
La3 O30 2.565835 1_555
La3 O6 2.614894 1_555
La3 O41 2.727381 1_555
La3 O37 2.884326 1_555
La3 O30 3.071800 1_545
La4 O19 2.360943 1_555
La4 O57 2.389515 1_555
La4 O20 2.480572 1_555
La4 O12 2.513638 1_555
La4 O32 2.556953 1_555
La4 O8 2.603932 1_555
La4 O39 2.729640 1_555
La4 O40 2.904199 1_555
La4 O32 3.085043 1_545
La5 O24 2.363640 1_555
La5 O58 2.392924 1_555
La5 O23 2.482139 1_555
La5 O13 2.512606 1_555
La5 O33 2.557997 1_555
La5 O7 2.605620 1_555
La5 O43 2.735827 1_555
La5 O42 2.911059 1_555
La5 O33 3.085940 1_545
Mg0 O27 2.051004 1_555
Mg0 O49 2.051088 1_555
Mg0 O12 2.052660 1_545
Mg0 O39 2.056630 1_545
Mg0 O19 2.060538 1_555
Mg0 O32 2.139138 1_545
Mg1 O28 2.044891 1_555
Mg1 O48 2.050416 1_555
Mg1 O11 2.050926 1_545
Mg1 O41 2.052979 1_545
Mg1 O18 2.058799 1_555
Mg1 O30 2.170414 1_545
Mg2 O53 2.051573 1_555
Mg2 O13 2.053569 1_545
Mg2 O24 2.057919 1_555
Mg2 O43 2.058851 1_545
Mg2 O29 2.070229 1_555
Mg2 O33 2.139479 1_545
O0 Ti1 1.906390 1_555
O0 Ti0 2.074504 1_654
O1 Ti3 1.900113 1_555
O1 Ti2 2.082229 1_555
O2 Ti4 1.939058 1_655
O2 Ti15 1.949910 1_655
O3 Ti5 1.927815 1_655
O3 Ti6 1.950853 1_655
O4 Ti7 1.937506 1_655
O4 Ti16 1.954913 1_555
O5 Ti8 1.996833 1_555
O5 Ti1 2.000048 1_555
O6 Ti3 1.979914 1_555
O6 Ti9 2.036750 1_565
O7 Ti6 2.003254 1_655
O7 Ti12 2.006707 1_565
O8 Ti15 1.995200 1_655
O8 Ti10 2.013892 1_565
O9 Ti2 1.966962 1_555
O9 Ti14 2.023722 1_555
O10 Ti13 1.951024 1_555
O10 Ti16 2.038078 1_555
O11 Ti4 1.977216 1_655
O11 O56 2.786726 1_655
O12 Ti5 1.974409 1_655
O12 O57 2.784471 1_655
O13 Ti7 1.975779 1_655
O13 O58 2.785486 1_655
O14 Ti11 1.974850 1_565
O14 Ti0 2.014659 1_655
O15 Ti1 1.980690 1_555
O15 Ti8 2.021618 1_545
O16 Ti2 1.925797 1_555
O16 Ti14 2.069885 1_545
O17 Ti9 2.000118 1_555
O17 Ti3 2.019409 1_555
O17 O56 2.749402 1_655
O17 O30 2.750447 1_545
O17 O6 2.783390 1_555
O17 O26 2.786733 1_555
O17 O6 2.795813 1_545
O17 O51 2.820068 1_655
O18 Ti4 1.974877 1_655
O18 O56 2.764463 1_655
O19 Ti5 1.968976 1_655
O19 O57 2.772098 1_655
O20 Ti15 1.987371 1_655
O20 Ti10 2.036095 1_555
O20 O57 2.721738 1_655
O20 O28 2.723729 1_555
O20 O32 2.768967 1_545
O20 O8 2.770735 1_555
O21 Ti16 1.943306 1_555
O21 Ti13 2.060201 1_545
O22 Ti11 1.948075 1_555
O22 Ti0 2.045121 1_655
O23 Ti6 1.995886 1_655
O23 Ti12 2.027749 1_555
O23 O58 2.725978 1_655
O23 O27 2.726786 1_555
O23 O33 2.769622 1_545
O23 O7 2.772940 1_555
O23 O7 2.805626 1_545
O23 O50 2.809709 1_655
O24 Ti7 1.970875 1_655
O24 O58 2.773541 1_655
O25 Ti8 1.886036 1_545
O25 Ti11 2.120755 1_554
O26 Ti9 1.935260 1_555
O26 Ti14 2.061502 1_545
O27 Ti12 1.835514 1_555
O28 Ti10 1.837457 1_555
O29 Ti13 1.819352 1_545
O30 Ti9 1.960765 1_565
O30 O6 2.725032 1_555
O31 Ti14 1.902036 1_555
O31 Ti8 2.099331 1_555
O32 Ti10 2.003681 1_565
O32 O8 2.730130 1_555
O32 O40 2.803553 1_555
O32 O52 2.816460 1_565
O33 Ti12 2.009800 1_565
O33 O7 2.730911 1_555
O33 O42 2.806067 1_555
O33 O50 2.820730 1_565
O34 Ti11 1.865540 1_565
O34 Ti13 2.142405 1_555
O35 Ti0 1.940422 1_554
O35 Ti11 2.062863 1_564
O36 Ti8 1.986347 1_555
O36 Ti1 2.005994 1_455
O37 Ti3 1.955716 1_455
O37 Ti9 2.007866 1_565
O37 O56 2.822965 1_555
O38 Ti14 1.938040 1_555
O38 Ti2 2.063262 1_455
O39 Ti5 1.907055 1_555
O40 Ti15 1.974292 1_555
O40 Ti10 2.001932 1_565
O41 Ti4 1.906749 1_555
O41 O56 2.850492 1_555
O42 Ti6 1.965902 1_555
O42 Ti12 2.010211 1_565
O43 Ti7 1.906297 1_555
O44 Ti13 1.967639 1_555
O44 Ti16 2.039959 1_455
O45 Ti0 1.974245 1_554
O45 Ti11 2.022584 1_554
O46 Ti14 1.971167 1_545
O46 Ti2 2.027939 1_455
O47 Ti1 1.991926 1_455
O47 Ti8 1.995548 1_545
O48 Ti4 1.915447 1_555
O48 O56 2.845453 1_555
O49 Ti5 1.913729 1_555
O50 Ti6 1.963868 1_555
O50 Ti12 2.006123 1_555
O51 Ti9 1.947914 1_555
O51 Ti3 2.005895 1_455
O51 O56 2.815244 1_555
O52 Ti15 1.971647 1_555
O52 Ti10 1.998047 1_555
O53 Ti7 1.912709 1_555
O54 Ti16 1.941355 1_455
O54 Ti13 2.066666 1_545
O55 Ti2 1.897823 1_455
O55 Ti1 2.087927 1_455
O56 Ti3 2.036073 1_455
O56 Ti4 2.162391 1_555
O56 O6 2.770347 1_455
O57 Ti15 1.979439 1_555
O57 Ti5 2.178410 1_555
O57 O8 2.753513 1_455
O58 Ti6 1.980021 1_555
O58 Ti7 2.192041 1_555
O58 O7 2.756958 1_455
O59 Ti0 1.922033 1_555
O59 Ti16 2.029056 1_455
