# generated using pymatgen
data_BiRu2(CO)6
_symmetry_space_group_name_H-M   'P 1'
_cell_length_a   7.68582700
_cell_length_b   11.75814600
_cell_length_c   17.22003383
_cell_angle_alpha   48.15204047
_cell_angle_beta   90.00000000
_cell_angle_gamma   90.00000000
_symmetry_Int_Tables_number   1
_chemical_formula_structural   BiRu2(CO)6
_chemical_formula_sum   'Bi4 Ru8 C24 O24'
_cell_volume   1159.23588106
_cell_formula_units_Z   4
loop_
 _symmetry_equiv_pos_site_id
 _symmetry_equiv_pos_as_xyz
  1  'x, y, z'
loop_
 _atom_site_type_symbol
 _atom_site_label
 _atom_site_symmetry_multiplicity
 _atom_site_fract_x
 _atom_site_fract_y
 _atom_site_fract_z
 _atom_site_occupancy
  Bi  Bi0  1  0.24976800  0.97342100  0.03932800  1
  Bi  Bi1  1  0.25023200  0.97342100  0.53932800  1
  Bi  Bi2  1  0.75023200  0.02657900  0.96067200  1
  Bi  Bi3  1  0.74976800  0.02657900  0.46067200  1
  Ru  Ru0  1  0.56399500  0.80602700  0.15428400  1
  Ru  Ru1  1  0.93600500  0.80602700  0.65428400  1
  Ru  Ru2  1  0.43600500  0.19397300  0.84571600  1
  Ru  Ru3  1  0.06399500  0.19397300  0.34571600  1
  Ru  Ru4  1  0.53532900  0.13751100  0.03597600  1
  Ru  Ru5  1  0.96467100  0.13751100  0.53597600  1
  Ru  Ru6  1  0.46467100  0.86248900  0.96402400  1
  Ru  Ru7  1  0.03532900  0.86248900  0.46402400  1
  C  C0  1  0.77709500  0.77561300  0.22253700  1
  C  C1  1  0.72290500  0.77561300  0.72253700  1
  C  C2  1  0.22290500  0.22438700  0.77746300  1
  C  C3  1  0.27709500  0.22438700  0.27746300  1
  C  C4  1  0.57459700  0.61525600  0.19079700  1
  C  C5  1  0.92540300  0.61525600  0.69079700  1
  C  C6  1  0.42540300  0.38474400  0.80920300  1
  C  C7  1  0.07459700  0.38474400  0.30920300  1
  C  C8  1  0.42490200  0.73156700  0.27185100  1
  C  C9  1  0.07509800  0.73156700  0.77185100  1
  C  C10  1  0.57509800  0.26843300  0.72814900  1
  C  C11  1  0.92490200  0.26843300  0.22814900  1
  C  C12  1  0.70882100  0.29190000  0.97617100  1
  C  C13  1  0.79117900  0.29190000  0.47617100  1
  C  C14  1  0.29117900  0.70810000  0.02382900  1
  C  C15  1  0.20882100  0.70810000  0.52382900  1
  C  C16  1  0.35603400  0.25880500  0.02603900  1
  C  C17  1  0.14396600  0.25880500  0.52603900  1
  C  C18  1  0.64396600  0.74119500  0.97396100  1
  C  C19  1  0.85603400  0.74119500  0.47396100  1
  C  C20  1  0.59151000  0.04047000  0.17458800  1
  C  C21  1  0.90849000  0.04047000  0.67458800  1
  C  C22  1  0.40849000  0.95953000  0.82541200  1
  C  C23  1  0.09151000  0.95953000  0.32541200  1
  O  O0  1  0.90382400  0.75162400  0.26806800  1
  O  O1  1  0.59617600  0.75162400  0.76806800  1
  O  O2  1  0.09617600  0.24837600  0.73193200  1
  O  O3  1  0.40382400  0.24837600  0.23193200  1
  O  O4  1  0.58763300  0.49073800  0.22443100  1
  O  O5  1  0.91236700  0.49073800  0.72443100  1
  O  O6  1  0.41236700  0.50926200  0.77556900  1
  O  O7  1  0.08763300  0.50926200  0.27556900  1
  O  O8  1  0.34443100  0.68334600  0.34518000  1
  O  O9  1  0.15556900  0.68334600  0.84518000  1
  O  O10  1  0.65556900  0.31665400  0.65482000  1
  O  O11  1  0.84443100  0.31665400  0.15482000  1
  O  O12  1  0.81266200  0.38663900  0.94195500  1
  O  O13  1  0.68733800  0.38663900  0.44195500  1
  O  O14  1  0.18733800  0.61336100  0.05804500  1
  O  O15  1  0.31266200  0.61336100  0.55804500  1
  O  O16  1  0.25020800  0.33303600  0.02181600  1
  O  O17  1  0.24979200  0.33303600  0.52181600  1
  O  O18  1  0.74979200  0.66696400  0.97818400  1
  O  O19  1  0.75020800  0.66696400  0.47818400  1
  O  O20  1  0.62493900  0.99641700  0.25680300  1
  O  O21  1  0.87506100  0.99641700  0.75680300  1
  O  O22  1  0.37506100  0.00358300  0.74319700  1
  O  O23  1  0.12493900  0.00358300  0.24319700  1
loop_
_geom_bond_atom_site_label_1
_geom_bond_atom_site_label_2
_geom_bond_distance
_geom_bond_site_symmetry_2
Bi0 Ru2 2.890170 1_564
Bi0 Ru6 2.892727 1_554
Bi0 Ru4 2.897295 1_565
Bi0 Ru0 2.902840 1_555
Bi0 C8 3.276893 1_555
Bi0 C16 3.309804 1_565
Bi0 C14 3.319026 1_555
Bi0 C2 3.365907 1_564
Bi0 O23 3.877120 1_565
Bi0 O0 3.959708 1_455
Bi0 Bi2 3.979473 1_464
Bi1 Ru3 2.890170 1_565
Bi1 Ru7 2.892727 1_555
Bi1 Ru5 2.897295 1_465
Bi1 Ru1 2.902840 1_455
Bi1 C9 3.276893 1_555
Bi1 C17 3.309804 1_565
Bi1 C15 3.319026 1_555
Bi1 C3 3.365907 1_565
Bi1 O22 3.877120 1_565
Bi1 O1 3.959708 1_555
Bi1 Bi3 3.979473 1_565
Bi2 Ru0 2.890170 1_546
Bi2 Ru4 2.892727 1_556
Bi2 Ru6 2.897295 1_545
Bi2 Ru2 2.902840 1_555
Bi2 C10 3.276893 1_555
Bi2 C18 3.309804 1_545
Bi2 C12 3.319026 1_555
Bi2 C0 3.365907 1_546
Bi2 O21 3.877120 1_545
Bi2 O2 3.959708 1_655
Bi3 Ru1 2.890170 1_545
Bi3 Ru5 2.892727 1_555
Bi3 Ru7 2.897295 1_645
Bi3 Ru3 2.902840 1_655
Bi3 C11 3.276893 1_555
Bi3 C19 3.309804 1_545
Bi3 C13 3.319026 1_555
Bi3 C1 3.365907 1_545
Bi3 O20 3.877120 1_545
Bi3 O3 3.959708 1_555
C0 O0 1.160996 1_555
C0 Ru0 1.905516 1_555
C1 O1 1.160996 1_555
C1 Ru1 1.905516 1_555
C2 O2 1.160996 1_555
C2 Ru2 1.905516 1_555
C3 O3 1.160996 1_555
C3 Ru3 1.905516 1_555
C4 O4 1.165166 1_555
C4 Ru0 1.884584 1_555
C5 O5 1.165166 1_555
C5 Ru1 1.884584 1_555
C6 O6 1.165166 1_555
C6 Ru2 1.884584 1_555
C7 O7 1.165166 1_555
C7 Ru3 1.884584 1_555
C8 O8 1.158956 1_555
C8 Ru0 1.908656 1_555
C9 O9 1.158956 1_555
C9 Ru1 1.908656 1_455
C10 O10 1.158956 1_555
C10 Ru2 1.908656 1_555
C11 O11 1.158956 1_555
C11 Ru3 1.908656 1_655
C12 O12 1.161575 1_555
C12 Ru4 1.907754 1_556
C13 O13 1.161575 1_555
C13 Ru5 1.907754 1_555
C14 O14 1.161575 1_555
C14 Ru6 1.907754 1_554
C15 O15 1.161575 1_555
C15 Ru7 1.907754 1_555
C16 O16 1.159295 1_555
C16 Ru4 1.906998 1_555
C17 O17 1.159295 1_555
C17 Ru5 1.906998 1_455
C18 O18 1.159295 1_555
C18 Ru6 1.906998 1_555
C19 O19 1.159295 1_555
C19 Ru7 1.906998 1_655
C20 O20 1.166259 1_545
C20 Ru4 1.884589 1_555
C21 O21 1.166259 1_545
C21 Ru5 1.884589 1_555
C22 O22 1.166259 1_565
C22 Ru6 1.884589 1_555
C23 O23 1.166259 1_565
C23 Ru7 1.884589 1_555
