# generated using pymatgen
data_Cs2Cu3(P2O7)2
_symmetry_space_group_name_H-M   'P 1'
_cell_length_a   11.04684000
_cell_length_b   7.89249200
_cell_length_c   8.01528452
_cell_angle_alpha   75.93669141
_cell_angle_beta   90.00000000
_cell_angle_gamma   90.00000000
_symmetry_Int_Tables_number   1
_chemical_formula_structural   Cs2Cu3(P2O7)2
_chemical_formula_sum   'Cs4 Cu6 P8 O28'
_cell_volume   677.88394610
_cell_formula_units_Z   2
loop_
 _symmetry_equiv_pos_site_id
 _symmetry_equiv_pos_as_xyz
  1  'x, y, z'
loop_
 _atom_site_type_symbol
 _atom_site_label
 _atom_site_symmetry_multiplicity
 _atom_site_fract_x
 _atom_site_fract_y
 _atom_site_fract_z
 _atom_site_occupancy
  Cs  Cs0  1  0.68564700  0.46008200  0.74482200  1
  Cs  Cs1  1  0.81435300  0.96008200  0.74482200  1
  Cs  Cs2  1  0.31435300  0.53991800  0.25517800  1
  Cs  Cs3  1  0.18564700  0.03991800  0.25517800  1
  Cu  Cu0  1  0.89165300  0.72818500  0.28269400  1
  Cu  Cu1  1  0.50000000  0.00000000  0.00000000  1
  Cu  Cu2  1  0.39165300  0.77181500  0.71730600  1
  Cu  Cu3  1  0.60834700  0.22818500  0.28269400  1
  Cu  Cu4  1  0.00000000  0.50000000  0.00000000  1
  Cu  Cu5  1  0.10834700  0.27181500  0.71730600  1
  P  P0  1  0.95104200  0.33737600  0.38091200  1
  P  P1  1  0.34206100  0.34651300  0.86815000  1
  P  P2  1  0.04895800  0.66262400  0.61908800  1
  P  P3  1  0.45104200  0.16262400  0.61908800  1
  P  P4  1  0.84206100  0.15348700  0.13185000  1
  P  P5  1  0.15793900  0.84651300  0.86815000  1
  P  P6  1  0.54895800  0.83737600  0.38091200  1
  P  P7  1  0.65793900  0.65348700  0.13185000  1
  O  O0  1  0.09128400  0.71252600  0.00972700  1
  O  O1  1  0.60154600  0.47362800  0.15249400  1
  O  O2  1  0.64626700  0.71318900  0.31324900  1
  O  O3  1  0.12427600  0.51476800  0.57732200  1
  O  O4  1  0.79616000  0.65959300  0.09975100  1
  O  O5  1  0.95400400  0.60344900  0.76150500  1
  O  O6  1  0.10154600  0.02637200  0.84750600  1
  O  O7  1  0.40871600  0.21252600  0.00972700  1
  O  O8  1  0.70384000  0.15959300  0.09975100  1
  O  O9  1  0.54599600  0.10344900  0.76150500  1
  O  O10  1  0.35373300  0.28681100  0.68675100  1
  O  O11  1  0.29616000  0.84040700  0.90024900  1
  O  O12  1  0.20384000  0.34040700  0.90024900  1
  O  O13  1  0.49494800  0.71311000  0.54121200  1
  O  O14  1  0.37572400  0.01476800  0.57732200  1
  O  O15  1  0.99494800  0.78689000  0.45878800  1
  O  O16  1  0.62427600  0.98523200  0.42267800  1
  O  O17  1  0.90871600  0.28747400  0.99027300  1
  O  O18  1  0.85373300  0.21318900  0.31324900  1
  O  O19  1  0.04599600  0.39655100  0.23849500  1
  O  O20  1  0.39845400  0.52637200  0.84750600  1
  O  O21  1  0.89845400  0.97362800  0.15249400  1
  O  O22  1  0.45400400  0.89655100  0.23849500  1
  O  O23  1  0.14626700  0.78681100  0.68675100  1
  O  O24  1  0.50505200  0.28689000  0.45878800  1
  O  O25  1  0.00505200  0.21311000  0.54121200  1
  O  O26  1  0.87572400  0.48523200  0.42267800  1
  O  O27  1  0.59128400  0.78747400  0.99027300  1
loop_
_geom_bond_atom_site_label_1
_geom_bond_atom_site_label_2
_geom_bond_distance
_geom_bond_site_symmetry_2
Cs0 O13 3.083091 1_555
Cs0 O9 3.183954 1_555
Cs0 O5 3.187475 1_555
Cs0 O8 3.237162 1_556
Cs0 O17 3.239782 1_555
Cs0 O26 3.296420 1_555
Cs0 O20 3.350467 1_555
Cs0 O1 3.423682 1_556
Cs0 O24 3.553552 1_555
Cs0 O2 3.575959 1_555
Cs0 O27 3.755583 1_555
Cs1 O25 3.083091 1_665
Cs1 O5 3.183954 1_555
Cs1 O9 3.187475 1_565
Cs1 O4 3.237162 1_556
Cs1 O27 3.239782 1_555
Cs1 O16 3.296420 1_555
Cs1 O6 3.350467 1_665
Cs1 O21 3.423682 1_556
Cs1 O15 3.553552 1_555
Cs1 O18 3.575959 1_565
Cs1 O17 3.755583 1_565
Cs2 O24 3.083091 1_555
Cs2 O22 3.183954 1_555
Cs2 O19 3.187475 1_555
Cs2 O11 3.237162 1_554
Cs2 O0 3.239782 1_555
Cs2 O3 3.296420 1_555
Cs2 O1 3.350467 1_555
Cs2 O20 3.423682 1_554
Cs2 O13 3.553552 1_555
Cs2 O10 3.575959 1_555
Cs2 O7 3.755583 1_555
Cs3 O15 3.083091 1_445
Cs3 O19 3.183954 1_555
Cs3 O22 3.187475 1_545
Cs3 O12 3.237162 1_554
Cs3 O7 3.239782 1_555
Cs3 O14 3.296420 1_555
Cs3 O21 3.350467 1_445
Cs3 O6 3.423682 1_554
Cs3 O25 3.553552 1_555
Cs3 O23 3.575959 1_545
Cs3 O0 3.755583 1_545
Cu0 O15 1.956204 1_555
Cu0 O21 1.965917 1_555
Cu0 O26 1.980180 1_555
Cu0 O4 1.985401 1_555
Cu0 O2 2.721766 1_555
Cu1 O22 1.954615 1_545
Cu1 O9 1.954615 1_554
Cu1 O27 1.974852 1_544
Cu1 O7 1.974852 1_555
Cu2 O13 1.956204 1_555
Cu2 O20 1.965917 1_555
Cu2 O14 1.980180 1_565
Cu2 O11 1.985401 1_555
Cu2 O23 2.721766 1_555
Cu3 O24 1.956204 1_555
Cu3 O1 1.965917 1_555
Cu3 O16 1.980180 1_545
Cu3 O8 1.985401 1_555
Cu3 O18 2.721766 1_555
Cu4 O19 1.954615 1_555
Cu4 O5 1.954615 1_454
Cu4 O0 1.974852 1_555
Cu4 O17 1.974852 1_454
Cu5 O25 1.956204 1_555
Cu5 O6 1.965917 1_555
Cu5 O3 1.980180 1_555
Cu5 O12 1.985401 1_555
Cu5 O10 2.721766 1_555
O0 P5 1.537854 1_554
O1 P7 1.521970 1_555
O2 P6 1.633611 1_555
O2 P7 1.638785 1_555
O3 P2 1.534916 1_555
O4 P7 1.547233 1_555
O5 P2 1.536997 1_655
O6 P5 1.521970 1_545
O7 P1 1.537854 1_554
O8 P4 1.547233 1_555
O9 P3 1.536997 1_555
O10 P3 1.633611 1_555
O10 P1 1.638785 1_555
O11 P5 1.547233 1_555
O12 P1 1.547233 1_555
O13 P6 1.535029 1_555
O14 P3 1.534916 1_555
O15 P2 1.535029 1_655
O16 P6 1.534916 1_555
O17 P4 1.537854 1_556
O18 P0 1.633611 1_555
O18 P4 1.638785 1_555
O19 P0 1.536997 1_455
O20 P1 1.521970 1_555
O21 P4 1.521970 1_565
O22 P6 1.536997 1_555
O23 P2 1.633611 1_555
O23 P5 1.638785 1_555
O24 P3 1.535029 1_555
O25 P0 1.535029 1_455
O26 P0 1.534916 1_555
O27 P7 1.537854 1_556
