# generated using pymatgen
data_Fe(CO)5
_symmetry_space_group_name_H-M   'P 1'
_cell_length_a   6.85732219
_cell_length_b   6.85732219
_cell_length_c   9.41567283
_cell_angle_alpha   74.47757805
_cell_angle_beta   74.47757805
_cell_angle_gamma   59.90726394
_symmetry_Int_Tables_number   1
_chemical_formula_structural   Fe(CO)5
_chemical_formula_sum   'Fe2 C10 O10'
_cell_volume   364.34466433
_cell_formula_units_Z   2
loop_
 _symmetry_equiv_pos_site_id
 _symmetry_equiv_pos_as_xyz
  1  'x, y, z'
loop_
 _atom_site_type_symbol
 _atom_site_label
 _atom_site_symmetry_multiplicity
 _atom_site_fract_x
 _atom_site_fract_y
 _atom_site_fract_z
 _atom_site_occupancy
  Fe  Fe0  1  0.16686400  0.83313600  0.25000000  1
  Fe  Fe1  1  0.83313600  0.16686400  0.75000000  1
  C  C0  1  0.96472800  0.29301700  0.81681800  1
  C  C1  1  0.90456700  0.09543300  0.25000000  1
  C  C2  1  0.77976400  0.38475800  0.58819800  1
  C  C3  1  0.09543300  0.90456700  0.75000000  1
  C  C4  1  0.38475800  0.77976400  0.08819800  1
  C  C5  1  0.70698300  0.03527200  0.68318200  1
  C  C6  1  0.29301700  0.96472800  0.31681800  1
  C  C7  1  0.03527200  0.70698300  0.18318200  1
  C  C8  1  0.61524200  0.22023600  0.91180200  1
  C  C9  1  0.22023600  0.61524200  0.41180200  1
  O  O0  1  0.95046200  0.62883300  0.14062500  1
  O  O1  1  0.25565400  0.47326500  0.51602200  1
  O  O2  1  0.74434600  0.52673500  0.48397800  1
  O  O3  1  0.37116700  0.04953800  0.35937500  1
  O  O4  1  0.62883300  0.95046200  0.64062500  1
  O  O5  1  0.47326500  0.25565400  0.01602200  1
  O  O6  1  0.04953800  0.37116700  0.85937500  1
  O  O7  1  0.73499400  0.26500600  0.25000000  1
  O  O8  1  0.52673500  0.74434600  0.98397800  1
  O  O9  1  0.26500600  0.73499400  0.75000000  1
loop_
_geom_bond_atom_site_label_1
_geom_bond_atom_site_label_2
_geom_bond_distance
_geom_bond_site_symmetry_2
C0 O6 1.156794 1_655
C0 Fe1 1.826578 1_555
C1 O7 1.161186 1_555
C1 Fe0 1.796133 1_645
C2 O2 1.161420 1_555
C2 Fe1 1.794200 1_555
C3 O9 1.161186 1_555
C3 Fe1 1.796133 1_465
C4 O8 1.161420 1_554
C4 Fe0 1.794200 1_555
C5 O4 1.156794 1_545
C5 Fe1 1.826578 1_555
C6 O3 1.156794 1_565
C6 Fe0 1.826578 1_555
C7 O0 1.156794 1_455
C7 Fe0 1.826578 1_555
C8 O5 1.161420 1_556
C8 Fe1 1.794200 1_555
C9 O1 1.161420 1_555
C9 Fe0 1.794200 1_555
