# generated using pymatgen
data_K10Zr3Cd(MoO4)12
_symmetry_space_group_name_H-M   'P 1'
_cell_length_a   14.29875539
_cell_length_b   14.29875539
_cell_length_c   14.29875487
_cell_angle_alpha   44.66522194
_cell_angle_beta   44.66522194
_cell_angle_gamma   44.66522489
_symmetry_Int_Tables_number   1
_chemical_formula_structural   K10Zr3Cd(MoO4)12
_chemical_formula_sum   'K10 Zr3 Cd1 Mo12 O48'
_cell_volume   1313.95349676
_cell_formula_units_Z   1
loop_
 _symmetry_equiv_pos_site_id
 _symmetry_equiv_pos_as_xyz
  1  'x, y, z'
loop_
 _atom_site_type_symbol
 _atom_site_label
 _atom_site_symmetry_multiplicity
 _atom_site_fract_x
 _atom_site_fract_y
 _atom_site_fract_z
 _atom_site_occupancy
  K  K0  1  0.89507900  0.89507900  0.89507900  1
  K  K1  1  0.60095700  0.60095700  0.60095700  1
  K  K2  1  0.11498200  0.87899500  0.50700300  1
  K  K3  1  0.87899500  0.50700300  0.11498200  1
  K  K4  1  0.50700300  0.11498200  0.87899500  1
  K  K5  1  0.39784700  0.39784700  0.39784700  1
  K  K6  1  0.38370000  0.61049800  0.00676000  1
  K  K7  1  0.00676000  0.38370000  0.61049800  1
  K  K8  1  0.61049800  0.00676000  0.38370000  1
  K  K9  1  0.10399300  0.10399300  0.10399300  1
  Zr  Zr0  1  0.00072200  0.00072200  0.00072200  1
  Zr  Zr1  1  0.75107800  0.75107800  0.75107800  1
  Zr  Zr2  1  0.24867700  0.24867700  0.24867700  1
  Cd  Cd0  1  0.50050500  0.50050500  0.50050500  1
  Mo  Mo0  1  0.22992700  0.98834000  0.63133100  1
  Mo  Mo1  1  0.98834000  0.63133100  0.22992700  1
  Mo  Mo2  1  0.51786200  0.87090600  0.26869500  1
  Mo  Mo3  1  0.63133100  0.22992700  0.98834000  1
  Mo  Mo4  1  0.26869500  0.51786200  0.87090600  1
  Mo  Mo5  1  0.87090600  0.26869500  0.51786200  1
  Mo  Mo6  1  0.48509700  0.73250600  0.12876800  1
  Mo  Mo7  1  0.12876800  0.48509700  0.73250600  1
  Mo  Mo8  1  0.01449600  0.77110000  0.36881000  1
  Mo  Mo9  1  0.73250600  0.12876800  0.48509700  1
  Mo  Mo10  1  0.77110000  0.36881000  0.01449600  1
  Mo  Mo11  1  0.36881000  0.01449600  0.77110000  1
  O  O0  1  0.75761500  0.94723900  0.64363800  1
  O  O1  1  0.64363800  0.75761500  0.94723900  1
  O  O2  1  0.94723900  0.64363800  0.75761500  1
  O  O3  1  0.54776900  0.85906900  0.74393300  1
  O  O4  1  0.21511300  0.95679300  0.92561200  1
  O  O5  1  0.95679300  0.92561200  0.21511300  1
  O  O6  1  0.85906900  0.74393300  0.54776900  1
  O  O7  1  0.74393300  0.54776900  0.85906900  1
  O  O8  1  0.39551400  0.86500300  0.65119700  1
  O  O9  1  0.92561200  0.21511300  0.95679300  1
  O  O10  1  0.86500300  0.65119700  0.39551400  1
  O  O11  1  0.60255700  0.87231600  0.31530400  1
  O  O12  1  0.18306600  0.90218600  0.63380200  1
  O  O13  1  0.65119700  0.39551400  0.86500300  1
  O  O14  1  0.31530400  0.60255700  0.87231600  1
  O  O15  1  0.90218600  0.63380200  0.18306600  1
  O  O16  1  0.64300700  0.84214500  0.10651300  1
  O  O17  1  0.87231600  0.31530400  0.60255700  1
  O  O18  1  0.45077200  0.73133200  0.42391900  1
  O  O19  1  0.10651300  0.64300700  0.84214500  1
  O  O20  1  0.63380200  0.18306600  0.90218600  1
  O  O21  1  0.42391900  0.45077200  0.73133200  1
  O  O22  1  0.36184500  0.89675200  0.15311800  1
  O  O23  1  0.73133200  0.42391900  0.45077200  1
  O  O24  1  0.84214500  0.10651300  0.64300700  1
  O  O25  1  0.55277500  0.57944600  0.26838700  1
  O  O26  1  0.26838700  0.55277500  0.57944600  1
  O  O27  1  0.09813500  0.81849700  0.36904500  1
  O  O28  1  0.15311800  0.36184500  0.89675200  1
  O  O29  1  0.57944600  0.26838700  0.55277500  1
  O  O30  1  0.39772400  0.68571000  0.13100600  1
  O  O31  1  0.89675200  0.15311800  0.36184500  1
  O  O32  1  0.81849700  0.36904500  0.09813500  1
  O  O33  1  0.13100600  0.39772400  0.68571000  1
  O  O34  1  0.13944300  0.60745900  0.34454700  1
  O  O35  1  0.36904500  0.09813500  0.81849700  1
  O  O36  1  0.68571000  0.13100600  0.39772400  1
  O  O37  1  0.60745900  0.34454700  0.13944300  1
  O  O38  1  0.04520400  0.78622300  0.07716700  1
  O  O39  1  0.34454700  0.13944300  0.60745900  1
  O  O40  1  0.14410800  0.45209300  0.25481200  1
  O  O41  1  0.45209300  0.25481200  0.14410800  1
  O  O42  1  0.78622300  0.07716700  0.04520400  1
  O  O43  1  0.07716700  0.04520500  0.78622300  1
  O  O44  1  0.25481200  0.14410800  0.45209300  1
  O  O45  1  0.24141800  0.35939000  0.05224500  1
  O  O46  1  0.05224500  0.24141800  0.35939000  1
  O  O47  1  0.35939000  0.05224500  0.24141800  1
loop_
_geom_bond_atom_site_label_1
_geom_bond_atom_site_label_2
_geom_bond_distance
_geom_bond_site_symmetry_2
K0 O24 2.798126 1_565
K0 O16 2.798126 1_556
K0 O19 2.798126 1_655
K0 O15 3.016026 1_556
K0 O12 3.016026 1_655
K0 O20 3.016026 1_565
K0 O38 3.352947 1_656
K0 O42 3.352947 1_566
K0 O43 3.352959 1_665
K1 O13 2.912044 1_555
K1 O10 2.912044 1_555
K1 O8 2.912044 1_555
K1 O11 3.031291 1_555
K1 O14 3.031291 1_555
K1 O17 3.031291 1_555
K1 O18 3.133751 1_555
K1 O21 3.133751 1_555
K1 O23 3.133751 1_555
K2 O27 2.845564 1_555
K2 O12 2.858323 1_555
K2 O26 3.073655 1_555
K2 O31 3.106617 1_465
K2 O24 3.120766 1_465
K2 O18 3.155404 1_555
K2 O19 3.334606 1_555
K2 O2 3.467150 1_455
K2 O22 3.488456 1_555
K2 O0 3.506944 1_455
K2 O46 3.554826 1_565
K2 O47 3.581386 1_565
K3 O32 2.845564 1_555
K3 O15 2.858323 1_555
K3 O25 3.073655 1_555
K3 O28 3.106617 1_654
K3 O19 3.120766 1_654
K3 O23 3.155404 1_555
K3 O16 3.334606 1_555
K3 O1 3.467150 1_554
K3 O31 3.488456 1_555
K3 O2 3.506943 1_554
K3 O45 3.554826 1_655
K3 O46 3.581386 1_655
K4 O35 2.845564 1_555
K4 O20 2.858323 1_555
K4 O29 3.073655 1_555
K4 O22 3.106617 1_546
K4 O16 3.120766 1_546
K4 O21 3.155404 1_555
K4 O24 3.334606 1_555
K4 O0 3.467150 1_545
K4 O28 3.488457 1_555
K4 O1 3.506944 1_545
K4 O47 3.554826 1_556
K4 O45 3.581386 1_556
K5 O37 2.867013 1_555
K5 O39 2.867013 1_555
K5 O34 2.867013 1_555
K5 O33 3.026536 1_555
K5 O30 3.026536 1_555
K5 O36 3.026537 1_555
K5 O26 3.254010 1_555
K5 O25 3.254010 1_555
K5 O29 3.254010 1_555
K6 O14 2.794210 1_554
K6 O30 2.807876 1_555
K6 O13 3.049263 1_554
K6 O37 3.059768 1_555
K6 O38 3.181392 1_555
K6 O4 3.240811 1_554
K6 O34 3.383836 1_555
K6 O40 3.431161 1_555
K6 O41 3.482640 1_555
K6 O7 3.527810 1_554
K6 O8 3.529151 1_554
K6 O3 3.546744 1_554
K7 O17 2.794210 1_455
K7 O33 2.807876 1_555
K7 O10 3.049263 1_455
K7 O34 3.059768 1_555
K7 O43 3.181381 1_555
K7 O9 3.240810 1_455
K7 O39 3.383836 1_555
K7 O44 3.431161 1_555
K7 O40 3.482640 1_555
K7 O6 3.527810 1_455
K7 O13 3.529151 1_455
K7 O7 3.546744 1_455
K8 O11 2.794210 1_545
K8 O36 2.807876 1_555
K8 O8 3.049263 1_545
K8 O39 3.059768 1_555
K8 O42 3.181392 1_555
K8 O5 3.240810 1_545
K8 O37 3.383836 1_555
K8 O41 3.431161 1_555
K8 O44 3.482640 1_555
K8 O3 3.527809 1_545
K8 O10 3.529151 1_545
K8 O6 3.546744 1_545
K9 O31 2.837286 1_455
K9 O28 2.837286 1_554
K9 O22 2.837286 1_545
K9 O35 3.010436 1_554
K9 O27 3.010436 1_545
K9 O32 3.010436 1_455
K9 O4 3.251931 1_544
K9 O5 3.251931 1_445
K9 O9 3.251931 1_454
Cd0 O25 2.278360 1_555
Cd0 O26 2.278360 1_555
Cd0 O29 2.278360 1_555
Cd0 O21 2.286109 1_555
Cd0 O18 2.286110 1_555
Cd0 O23 2.286110 1_555
Mo0 O12 1.745377 1_555
Mo0 O8 1.761064 1_555
Mo0 O44 1.834714 1_565
Mo0 O43 1.868500 1_565
Mo1 O15 1.745377 1_555
Mo1 O10 1.761064 1_555
Mo1 O40 1.834714 1_655
Mo1 O38 1.868494 1_655
Mo2 O11 1.764387 1_555
Mo2 O16 1.776514 1_555
Mo2 O18 1.795344 1_555
Mo2 O47 1.863055 1_565
Mo3 O20 1.745377 1_555
Mo3 O13 1.761064 1_555
Mo3 O41 1.834714 1_556
Mo3 O42 1.868494 1_556
Mo4 O14 1.764387 1_555
Mo4 O19 1.776514 1_555
Mo4 O21 1.795344 1_555
Mo4 O45 1.863055 1_556
Mo5 O17 1.764387 1_555
Mo5 O24 1.776514 1_555
Mo5 O23 1.795344 1_555
Mo5 O46 1.863055 1_655
Mo6 O30 1.763900 1_555
Mo6 O22 1.773564 1_555
Mo6 O25 1.797852 1_555
Mo6 O1 1.862110 1_554
Mo7 O33 1.763900 1_555
Mo7 O28 1.773564 1_555
Mo7 O26 1.797852 1_555
Mo7 O2 1.862111 1_455
Mo8 O27 1.746835 1_555
Mo8 O34 1.764617 1_555
Mo8 O6 1.833753 1_455
Mo8 O5 1.863179 1_455
Mo9 O36 1.763900 1_555
Mo9 O31 1.773564 1_555
Mo9 O29 1.797852 1_555
Mo9 O0 1.862111 1_545
Mo10 O32 1.746835 1_555
Mo10 O37 1.764617 1_555
Mo10 O7 1.833753 1_554
Mo10 O9 1.863179 1_554
Mo11 O35 1.746835 1_555
Mo11 O39 1.764617 1_555
Mo11 O3 1.833754 1_545
Mo11 O4 1.863179 1_545
O0 Zr1 2.067703 1_555
O1 Zr1 2.067703 1_555
O2 Zr1 2.067703 1_555
O3 Zr1 2.158387 1_555
O4 Zr0 2.117274 1_566
O5 Zr0 2.117274 1_665
O6 Zr1 2.158387 1_555
O7 Zr1 2.158387 1_555
O9 Zr0 2.117274 1_656
O38 Zr0 2.109861 1_565
O40 Zr2 2.166438 1_555
O41 Zr2 2.166438 1_555
O42 Zr0 2.109861 1_655
O43 Zr0 2.109856 1_556
O44 Zr2 2.166438 1_555
O45 Zr2 2.064465 1_555
O46 Zr2 2.064465 1_555
O47 Zr2 2.064465 1_555
