# generated using pymatgen
data_Mn2NiO4
_symmetry_space_group_name_H-M   'P 1'
_cell_length_a   6.00116995
_cell_length_b   6.00116995
_cell_length_c   10.33141781
_cell_angle_alpha   73.92031394
_cell_angle_beta   73.92031394
_cell_angle_gamma   61.02249564
_symmetry_Int_Tables_number   1
_chemical_formula_structural   Mn2NiO4
_chemical_formula_sum   'Mn8 Ni4 O16'
_cell_volume   308.21616959
_cell_formula_units_Z   4
loop_
 _symmetry_equiv_pos_site_id
 _symmetry_equiv_pos_as_xyz
  1  'x, y, z'
loop_
 _atom_site_type_symbol
 _atom_site_label
 _atom_site_symmetry_multiplicity
 _atom_site_fract_x
 _atom_site_fract_y
 _atom_site_fract_z
 _atom_site_occupancy
  Mn  Mn0  1  0.43125700  0.43125700  0.68794400  1
  Mn  Mn1  1  0.50564400  0.99905500  0.49947500  1
  Mn  Mn2  1  0.24786200  0.24786200  0.24840300  1
  Mn  Mn3  1  0.99905500  0.50564400  0.49947500  1
  Mn  Mn4  1  0.06983400  0.06983400  0.81344000  1
  Mn  Mn5  1  0.99634000  0.50060500  0.00011200  1
  Mn  Mn6  1  0.50060500  0.99634000  0.00011200  1
  Mn  Mn7  1  0.56685800  0.56685800  0.31377100  1
  Ni  Ni0  1  0.92845900  0.92845900  0.18438900  1
  Ni  Ni1  1  0.00024000  0.00024000  0.49883500  1
  Ni  Ni2  1  0.75087200  0.75087200  0.75079500  1
  Ni  Ni3  1  0.50081000  0.50081000  0.00041200  1
  O  O0  1  0.86524400  0.40908400  0.88704300  1
  O  O1  1  0.86236600  0.86236600  0.88678200  1
  O  O2  1  0.36404800  0.91851000  0.37681800  1
  O  O3  1  0.35667500  0.35667500  0.89827600  1
  O  O4  1  0.40908400  0.86524400  0.88704300  1
  O  O5  1  0.35750900  0.35750900  0.38029000  1
  O  O6  1  0.09635500  0.63704400  0.61168300  1
  O  O7  1  0.86103800  0.86103800  0.38926500  1
  O  O8  1  0.14514200  0.14514200  0.60265300  1
  O  O9  1  0.91851000  0.36404800  0.37681800  1
  O  O10  1  0.63927300  0.63927300  0.60988300  1
  O  O11  1  0.58030700  0.13797100  0.12564600  1
  O  O12  1  0.64026200  0.64026200  0.10719100  1
  O  O13  1  0.63704400  0.09635500  0.61168300  1
  O  O14  1  0.13133900  0.13133900  0.12611600  1
  O  O15  1  0.13797100  0.58030700  0.12564600  1
loop_
_geom_bond_atom_site_label_1
_geom_bond_atom_site_label_2
_geom_bond_distance
_geom_bond_site_symmetry_2
Mn0 O6 2.029399 1_555
Mn0 O13 2.029399 1_555
Mn0 O10 2.040016 1_555
Mn0 O3 2.058948 1_555
Mn1 O13 1.906352 1_565
Mn1 O2 1.973659 1_555
Mn1 O8 1.996943 1_565
Mn1 O7 1.999201 1_555
Mn1 O10 2.017612 1_555
Mn1 O5 2.054285 1_565
Mn2 O11 1.952053 1_555
Mn2 O15 1.952053 1_555
Mn2 O9 1.969112 1_455
Mn2 O2 1.969112 1_545
Mn2 O14 2.006669 1_555
Mn2 O5 2.033577 1_555
Mn3 O6 1.906352 1_655
Mn3 O9 1.973659 1_555
Mn3 O8 1.996943 1_655
Mn3 O7 1.999201 1_555
Mn3 O10 2.017612 1_555
Mn3 O5 2.054285 1_655
Mn4 O1 2.032547 1_445
Mn4 O0 2.036908 1_455
Mn4 O4 2.036908 1_545
Mn4 O8 2.063616 1_555
Mn5 O0 1.889016 1_554
Mn5 O12 1.990310 1_555
Mn5 O3 1.990590 1_654
Mn5 O15 1.995354 1_655
Mn5 O1 2.037806 1_554
Mn5 O14 2.123311 1_655
Mn6 O4 1.889016 1_554
Mn6 O12 1.990310 1_555
Mn6 O3 1.990590 1_564
Mn6 O11 1.995354 1_565
Mn6 O1 2.037806 1_554
Mn6 O14 2.123311 1_565
Mn7 O12 2.022275 1_555
Mn7 O2 2.047606 1_555
Mn7 O9 2.047606 1_555
Mn7 O5 2.049844 1_555
Ni0 O14 1.987804 1_665
Ni0 O7 2.004361 1_555
Ni0 O11 2.012167 1_565
Ni0 O15 2.012167 1_655
Ni1 O13 2.046790 1_455
Ni1 O6 2.046790 1_545
Ni1 O9 2.092059 1_455
Ni1 O2 2.092059 1_545
Ni1 O7 2.097860 1_445
Ni1 O8 2.104472 1_555
Ni2 O0 2.057035 1_555
Ni2 O4 2.057035 1_555
Ni2 O1 2.084339 1_555
Ni2 O13 2.086083 1_565
Ni2 O6 2.086083 1_655
Ni2 O10 2.128678 1_555
Ni3 O4 2.056612 1_554
Ni3 O0 2.056612 1_554
Ni3 O12 2.078259 1_555
Ni3 O3 2.084707 1_554
Ni3 O15 2.101837 1_555
Ni3 O11 2.101837 1_555
