# generated using pymatgen
data_Sm2Pd2Pb
_symmetry_space_group_name_H-M   'P 1'
_cell_length_a   15.85373442
_cell_length_b   15.85373442
_cell_length_c   7.46625368
_cell_angle_alpha   90.00000000
_cell_angle_beta   90.00000000
_cell_angle_gamma   90.00000000
_symmetry_Int_Tables_number   1
_chemical_formula_structural   Sm2Pd2Pb
_chemical_formula_sum   'Sm32 Pd32 Pb16'
_cell_volume   1876.57488268
_cell_formula_units_Z   16
loop_
 _symmetry_equiv_pos_site_id
 _symmetry_equiv_pos_as_xyz
  1  'x, y, z'
loop_
 _atom_site_type_symbol
 _atom_site_label
 _atom_site_symmetry_multiplicity
 _atom_site_fract_x
 _atom_site_fract_y
 _atom_site_fract_z
 _atom_site_occupancy
  Sm  Sm0_0  1  0.16253716  0.41253716  0.25000000  1
  Sm  Sm0_1  1  0.16253716  0.41253716  0.75000000  1
  Sm  Sm0_2  1  0.16253716  0.91253716  0.25000000  1
  Sm  Sm0_3  1  0.16253716  0.91253716  0.75000000  1
  Sm  Sm0_4  1  0.66253716  0.41253716  0.25000000  1
  Sm  Sm0_5  1  0.66253716  0.41253716  0.75000000  1
  Sm  Sm0_6  1  0.66253716  0.91253716  0.25000000  1
  Sm  Sm0_7  1  0.66253716  0.91253716  0.75000000  1
  Sm  Sm1_0  1  0.33746285  0.08746285  0.25000000  1
  Sm  Sm1_1  1  0.33746285  0.08746285  0.75000000  1
  Sm  Sm1_2  1  0.33746285  0.58746285  0.25000000  1
  Sm  Sm1_3  1  0.33746285  0.58746285  0.75000000  1
  Sm  Sm1_4  1  0.83746285  0.08746285  0.25000000  1
  Sm  Sm1_5  1  0.83746285  0.08746285  0.75000000  1
  Sm  Sm1_6  1  0.83746285  0.58746285  0.25000000  1
  Sm  Sm1_7  1  0.83746285  0.58746285  0.75000000  1
  Sm  Sm2_0  1  0.41253716  0.33746285  0.25000000  1
  Sm  Sm2_1  1  0.41253716  0.33746285  0.75000000  1
  Sm  Sm2_2  1  0.41253716  0.83746285  0.25000000  1
  Sm  Sm2_3  1  0.41253716  0.83746285  0.75000000  1
  Sm  Sm2_4  1  0.91253716  0.33746285  0.25000000  1
  Sm  Sm2_5  1  0.91253716  0.33746285  0.75000000  1
  Sm  Sm2_6  1  0.91253716  0.83746285  0.25000000  1
  Sm  Sm2_7  1  0.91253716  0.83746285  0.75000000  1
  Sm  Sm3_0  1  0.08746285  0.16253716  0.25000000  1
  Sm  Sm3_1  1  0.08746285  0.16253716  0.75000000  1
  Sm  Sm3_2  1  0.08746285  0.66253716  0.25000000  1
  Sm  Sm3_3  1  0.08746285  0.66253716  0.75000000  1
  Sm  Sm3_4  1  0.58746285  0.16253716  0.25000000  1
  Sm  Sm3_5  1  0.58746285  0.16253716  0.75000000  1
  Sm  Sm3_6  1  0.58746285  0.66253716  0.25000000  1
  Sm  Sm3_7  1  0.58746285  0.66253716  0.75000000  1
  Pd  Pd0_0  1  0.06182518  0.31182518  0.00000000  1
  Pd  Pd0_1  1  0.06182518  0.31182518  0.50000000  1
  Pd  Pd0_2  1  0.06182518  0.81182518  0.00000000  1
  Pd  Pd0_3  1  0.06182518  0.81182518  0.50000000  1
  Pd  Pd0_4  1  0.56182518  0.31182518  0.00000000  1
  Pd  Pd0_5  1  0.56182518  0.31182518  0.50000000  1
  Pd  Pd0_6  1  0.56182518  0.81182518  0.00000000  1
  Pd  Pd0_7  1  0.56182518  0.81182518  0.50000000  1
  Pd  Pd1_0  1  0.18817482  0.06182518  0.00000000  1
  Pd  Pd1_1  1  0.18817482  0.06182518  0.50000000  1
  Pd  Pd1_2  1  0.18817482  0.56182518  0.00000000  1
  Pd  Pd1_3  1  0.18817482  0.56182518  0.50000000  1
  Pd  Pd1_4  1  0.68817482  0.06182518  0.00000000  1
  Pd  Pd1_5  1  0.68817482  0.06182518  0.50000000  1
  Pd  Pd1_6  1  0.68817482  0.56182518  0.00000000  1
  Pd  Pd1_7  1  0.68817482  0.56182518  0.50000000  1
  Pd  Pd2_0  1  0.43817482  0.18817482  0.00000000  1
  Pd  Pd2_1  1  0.43817482  0.18817482  0.50000000  1
  Pd  Pd2_2  1  0.43817482  0.68817482  0.00000000  1
  Pd  Pd2_3  1  0.43817482  0.68817482  0.50000000  1
  Pd  Pd2_4  1  0.93817482  0.18817482  0.00000000  1
  Pd  Pd2_5  1  0.93817482  0.18817482  0.50000000  1
  Pd  Pd2_6  1  0.93817482  0.68817482  0.00000000  1
  Pd  Pd2_7  1  0.93817482  0.68817482  0.50000000  1
  Pd  Pd3_0  1  0.31182518  0.43817482  0.00000000  1
  Pd  Pd3_1  1  0.31182518  0.43817482  0.50000000  1
  Pd  Pd3_2  1  0.31182518  0.93817482  0.00000000  1
  Pd  Pd3_3  1  0.31182518  0.93817482  0.50000000  1
  Pd  Pd3_4  1  0.81182518  0.43817482  0.00000000  1
  Pd  Pd3_5  1  0.81182518  0.43817482  0.50000000  1
  Pd  Pd3_6  1  0.81182518  0.93817482  0.00000000  1
  Pd  Pd3_7  1  0.81182518  0.93817482  0.50000000  1
  Pb  Pb0_0  1  0.00000000  0.00000000  0.00000000  1
  Pb  Pb0_1  1  0.00000000  0.00000000  0.50000000  1
  Pb  Pb0_2  1  0.00000000  0.50000000  0.00000000  1
  Pb  Pb0_3  1  0.00000000  0.50000000  0.50000000  1
  Pb  Pb0_4  1  0.50000000  0.00000000  0.00000000  1
  Pb  Pb0_5  1  0.50000000  0.00000000  0.50000000  1
  Pb  Pb0_6  1  0.50000000  0.50000000  0.00000000  1
  Pb  Pb0_7  1  0.50000000  0.50000000  0.50000000  1
  Pb  Pb1_0  1  0.25000000  0.25000000  0.00000000  1
  Pb  Pb1_1  1  0.25000000  0.25000000  0.50000000  1
  Pb  Pb1_2  1  0.25000000  0.75000000  0.00000000  1
  Pb  Pb1_3  1  0.25000000  0.75000000  0.50000000  1
  Pb  Pb1_4  1  0.75000000  0.25000000  0.00000000  1
  Pb  Pb1_5  1  0.75000000  0.25000000  0.50000000  1
  Pb  Pb1_6  1  0.75000000  0.75000000  0.00000000  1
  Pb  Pb1_7  1  0.75000000  0.75000000  0.50000000  1
loop_
_geom_bond_atom_site_label_1
_geom_bond_atom_site_label_2
_geom_bond_distance
_geom_bond_site_symmetry_2
Pd0_0 Pd2_4 2.772311 1_455
Pd0_0 Sm0_0 2.929626 1_555
Pd0_0 Sm0_1 2.929626 1_554
Pd0_0 Sm2_5 3.041525 1_454
Pd0_0 Sm2_4 3.041525 1_455
Pd0_0 Sm3_0 3.041525 1_555
Pd0_0 Sm3_1 3.041525 1_554
Pd0_1 Pd2_5 2.772311 1_455
Pd0_1 Sm0_0 2.929626 1_555
Pd0_1 Sm0_1 2.929626 1_555
Pd0_1 Sm2_4 3.041525 1_455
Pd0_1 Sm2_5 3.041525 1_455
Pd0_1 Sm3_0 3.041525 1_555
Pd0_1 Sm3_1 3.041525 1_555
Pd0_2 Pd2_6 2.772311 1_455
Pd0_2 Sm0_3 2.929626 1_554
Pd0_2 Sm0_2 2.929626 1_555
Pd0_2 Sm2_6 3.041525 1_455
Pd0_2 Sm2_7 3.041525 1_454
Pd0_2 Sm3_2 3.041525 1_555
Pd0_2 Sm3_3 3.041525 1_554
Pd0_3 Pd2_7 2.772311 1_455
Pd0_3 Sm0_3 2.929626 1_555
Pd0_3 Sm0_2 2.929626 1_555
Pd0_3 Sm2_6 3.041525 1_455
Pd0_3 Sm2_7 3.041525 1_455
Pd0_3 Sm3_2 3.041525 1_555
Pd0_3 Sm3_3 3.041525 1_555
Pd0_4 Pd2_0 2.772311 1_555
Pd0_4 Sm0_4 2.929626 1_555
Pd0_4 Sm0_5 2.929626 1_554
Pd0_4 Sm3_4 3.041525 1_555
Pd0_4 Sm3_5 3.041525 1_554
Pd0_4 Sm2_0 3.041525 1_555
Pd0_4 Sm2_1 3.041525 1_554
Pd0_5 Pd2_1 2.772311 1_555
Pd0_5 Sm0_4 2.929626 1_555
Pd0_5 Sm0_5 2.929626 1_555
Pd0_5 Sm3_4 3.041525 1_555
Pd0_5 Sm3_5 3.041525 1_555
Pd0_5 Sm2_1 3.041525 1_555
Pd0_5 Sm2_0 3.041525 1_555
Pd0_6 Pd2_2 2.772311 1_555
Pd0_6 Sm0_7 2.929626 1_554
Pd0_6 Sm0_6 2.929626 1_555
Pd0_6 Sm3_7 3.041525 1_554
Pd0_6 Sm3_6 3.041525 1_555
Pd0_6 Sm2_3 3.041525 1_554
Pd0_6 Sm2_2 3.041525 1_555
Pd0_7 Pd2_3 2.772311 1_555
Pd0_7 Sm0_7 2.929626 1_555
Pd0_7 Sm0_6 2.929626 1_555
Pd0_7 Sm3_6 3.041525 1_555
Pd0_7 Sm3_7 3.041525 1_555
Pd0_7 Sm2_3 3.041525 1_555
Pd0_7 Sm2_2 3.041525 1_555
Pd1_0 Pd3_2 2.772311 1_545
Pd1_0 Sm3_0 2.929626 1_555
Pd1_0 Sm3_1 2.929626 1_554
Pd1_0 Sm0_2 3.041525 1_545
Pd1_0 Sm0_3 3.041525 1_544
Pd1_0 Sm1_0 3.041525 1_555
Pd1_0 Sm1_1 3.041525 1_554
Pd1_1 Pd3_3 2.772311 1_545
Pd1_1 Sm3_0 2.929626 1_555
Pd1_1 Sm3_1 2.929626 1_555
Pd1_1 Sm0_3 3.041525 1_545
Pd1_1 Sm0_2 3.041525 1_545
Pd1_1 Sm1_1 3.041525 1_555
Pd1_1 Sm1_0 3.041525 1_555
Pd1_2 Pd3_0 2.772311 1_555
Pd1_2 Sm3_2 2.929626 1_555
Pd1_2 Sm3_3 2.929626 1_554
Pd1_2 Sm1_2 3.041525 1_555
Pd1_2 Sm1_3 3.041525 1_554
Pd1_2 Sm0_0 3.041525 1_555
Pd1_2 Sm0_1 3.041525 1_554
Pd1_3 Pd3_1 2.772311 1_555
Pd1_3 Sm3_2 2.929626 1_555
Pd1_3 Sm3_3 2.929626 1_555
Pd1_3 Sm1_3 3.041525 1_555
Pd1_3 Sm1_2 3.041525 1_555
Pd1_3 Sm0_1 3.041525 1_555
Pd1_3 Sm0_0 3.041525 1_555
Pd1_4 Pd3_6 2.772311 1_545
Pd1_4 Sm3_5 2.929626 1_554
Pd1_4 Sm3_4 2.929626 1_555
Pd1_4 Sm0_6 3.041525 1_545
Pd1_4 Sm0_7 3.041525 1_544
Pd1_4 Sm1_4 3.041525 1_555
Pd1_4 Sm1_5 3.041525 1_554
Pd1_5 Pd3_7 2.772311 1_545
Pd1_5 Sm3_5 2.929626 1_555
Pd1_5 Sm3_4 2.929626 1_555
Pd1_5 Sm0_6 3.041525 1_545
Pd1_5 Sm0_7 3.041525 1_545
Pd1_5 Sm1_5 3.041525 1_555
Pd1_5 Sm1_4 3.041525 1_555
Pd1_6 Pd3_4 2.772311 1_555
Pd1_6 Sm3_7 2.929626 1_554
Pd1_6 Sm3_6 2.929626 1_555
Pd1_6 Sm1_6 3.041525 1_555
Pd1_6 Sm1_7 3.041525 1_554
Pd1_6 Sm0_4 3.041525 1_555
Pd1_6 Sm0_5 3.041525 1_554
Pd1_7 Pd3_5 2.772311 1_555
Pd1_7 Sm3_6 2.929626 1_555
Pd1_7 Sm3_7 2.929626 1_555
Pd1_7 Sm1_7 3.041525 1_555
Pd1_7 Sm1_6 3.041525 1_555
Pd1_7 Sm0_5 3.041525 1_555
Pd1_7 Sm0_4 3.041525 1_555
Pd2_0 Sm1_0 2.929626 1_555
Pd2_0 Sm1_1 2.929626 1_554
Pd2_0 Sm3_4 3.041525 1_555
Pd2_0 Sm3_5 3.041525 1_554
Pd2_0 Sm2_0 3.041525 1_555
Pd2_0 Sm2_1 3.041525 1_554
Pd2_1 Sm1_0 2.929626 1_555
Pd2_1 Sm1_1 2.929626 1_555
Pd2_1 Sm3_4 3.041525 1_555
Pd2_1 Sm3_5 3.041525 1_555
Pd2_1 Sm2_0 3.041525 1_555
Pd2_1 Sm2_1 3.041525 1_555
Pd2_2 Sm1_2 2.929626 1_555
Pd2_2 Sm1_3 2.929626 1_554
Pd2_2 Sm3_6 3.041525 1_555
Pd2_2 Sm3_7 3.041525 1_554
Pd2_2 Sm2_2 3.041525 1_555
Pd2_2 Sm2_3 3.041525 1_554
Pd2_3 Sm1_2 2.929626 1_555
Pd2_3 Sm1_3 2.929626 1_555
Pd2_3 Sm3_6 3.041525 1_555
Pd2_3 Sm3_7 3.041525 1_555
Pd2_3 Sm2_2 3.041525 1_555
Pd2_3 Sm2_3 3.041525 1_555
Pd2_4 Sm1_4 2.929626 1_555
Pd2_4 Sm1_5 2.929626 1_554
Pd2_4 Sm2_4 3.041525 1_555
Pd2_4 Sm2_5 3.041525 1_554
Pd2_4 Sm3_1 3.041525 1_654
Pd2_4 Sm3_0 3.041525 1_655
Pd2_5 Sm1_5 2.929626 1_555
Pd2_5 Sm1_4 2.929626 1_555
Pd2_5 Sm2_4 3.041525 1_555
Pd2_5 Sm2_5 3.041525 1_555
Pd2_5 Sm3_0 3.041525 1_655
Pd2_5 Sm3_1 3.041525 1_655
Pd2_6 Sm1_7 2.929626 1_554
Pd2_6 Sm1_6 2.929626 1_555
Pd2_6 Sm3_2 3.041525 1_655
Pd2_6 Sm3_3 3.041525 1_654
Pd2_6 Sm2_6 3.041525 1_555
Pd2_6 Sm2_7 3.041525 1_554
Pd2_7 Sm1_6 2.929626 1_555
Pd2_7 Sm1_7 2.929626 1_555
Pd2_7 Sm2_7 3.041525 1_555
Pd2_7 Sm3_2 3.041525 1_655
Pd2_7 Sm3_3 3.041525 1_655
Pd2_7 Sm2_6 3.041525 1_555
Pd3_0 Sm2_0 2.929626 1_555
Pd3_0 Sm2_1 2.929626 1_554
Pd3_0 Sm1_2 3.041525 1_555
Pd3_0 Sm1_3 3.041525 1_554
Pd3_0 Sm0_0 3.041525 1_555
Pd3_0 Sm0_1 3.041525 1_554
Pd3_1 Sm2_1 2.929626 1_555
Pd3_1 Sm2_0 2.929626 1_555
Pd3_1 Sm1_3 3.041525 1_555
Pd3_1 Sm1_2 3.041525 1_555
Pd3_1 Sm0_0 3.041525 1_555
Pd3_1 Sm0_1 3.041525 1_555
Pd3_2 Sm2_2 2.929626 1_555
Pd3_2 Sm2_3 2.929626 1_554
Pd3_2 Sm0_2 3.041525 1_555
Pd3_2 Sm0_3 3.041525 1_554
Pd3_2 Sm1_0 3.041525 1_565
Pd3_2 Sm1_1 3.041525 1_564
Pd3_3 Sm2_2 2.929626 1_555
Pd3_3 Sm2_3 2.929626 1_555
Pd3_3 Sm0_2 3.041525 1_555
Pd3_3 Sm0_3 3.041525 1_555
Pd3_3 Sm1_0 3.041525 1_565
Pd3_3 Sm1_1 3.041525 1_565
Pd3_4 Sm2_5 2.929626 1_554
Pd3_4 Sm2_4 2.929626 1_555
Pd3_4 Sm1_6 3.041525 1_555
Pd3_4 Sm0_5 3.041525 1_554
Pd3_4 Sm0_4 3.041525 1_555
Pd3_4 Sm1_7 3.041525 1_554
Pd3_5 Sm2_5 2.929626 1_555
Pd3_5 Sm2_4 2.929626 1_555
Pd3_5 Sm1_7 3.041525 1_555
Pd3_5 Sm1_6 3.041525 1_555
Pd3_5 Sm0_5 3.041525 1_555
Pd3_5 Sm0_4 3.041525 1_555
Pd3_6 Sm2_7 2.929626 1_554
Pd3_6 Sm2_6 2.929626 1_555
Pd3_6 Sm0_7 3.041525 1_554
Pd3_6 Sm0_6 3.041525 1_555
Pd3_6 Sm1_4 3.041525 1_565
Pd3_6 Sm1_5 3.041525 1_564
Pd3_7 Sm2_7 2.929626 1_555
Pd3_7 Sm2_6 2.929626 1_555
Pd3_7 Sm0_6 3.041525 1_555
Pd3_7 Sm0_7 3.041525 1_555
Pd3_7 Sm1_4 3.041525 1_565
Pd3_7 Sm1_5 3.041525 1_565
Pb0_0 Pd3_6 3.140165 1_445
Pb0_0 Pd2_4 3.140165 1_455
Pb0_0 Pd0_2 3.140165 1_545
Pb0_0 Pd1_0 3.140165 1_555
Pb0_0 Sm2_6 3.470844 1_445
Pb0_0 Sm2_7 3.470844 1_444
Pb0_0 Sm1_4 3.470844 1_455
Pb0_0 Sm1_5 3.470844 1_454
Pb0_0 Sm0_2 3.470844 1_545
Pb0_0 Sm0_3 3.470844 1_544
Pb0_0 Sm3_1 3.470844 1_554
Pb0_0 Sm3_0 3.470844 1_555
Pb0_0 Pb0_1 3.733127 1_555
Pb0_0 Pb0_1 3.733127 1_554
Pb0_1 Pd3_7 3.140165 1_445
Pb0_1 Pd0_3 3.140165 1_545
Pb0_1 Pd2_5 3.140165 1_455
Pb0_1 Pd1_1 3.140165 1_555
Pb0_1 Sm2_6 3.470844 1_445
Pb0_1 Sm2_7 3.470844 1_445
Pb0_1 Sm1_4 3.470844 1_455
Pb0_1 Sm1_5 3.470844 1_455
Pb0_1 Sm0_3 3.470844 1_545
Pb0_1 Sm0_2 3.470844 1_545
Pb0_1 Sm3_1 3.470844 1_555
Pb0_1 Sm3_0 3.470844 1_555
Pb0_2 Pd3_4 3.140165 1_455
Pb0_2 Pd0_0 3.140165 1_555
Pb0_2 Pd1_2 3.140165 1_555
Pb0_2 Pd2_6 3.140165 1_455
Pb0_2 Sm1_6 3.470844 1_455
Pb0_2 Sm1_7 3.470844 1_454
Pb0_2 Sm2_5 3.470844 1_454
Pb0_2 Sm2_4 3.470844 1_455
Pb0_2 Sm0_1 3.470844 1_554
Pb0_2 Sm0_0 3.470844 1_555
Pb0_2 Sm3_2 3.470844 1_555
Pb0_2 Sm3_3 3.470844 1_554
Pb0_2 Pb0_3 3.733127 1_555
Pb0_2 Pb0_3 3.733127 1_554
Pb0_3 Pd3_5 3.140165 1_455
Pb0_3 Pd0_1 3.140165 1_555
Pb0_3 Pd2_7 3.140165 1_455
Pb0_3 Pd1_3 3.140165 1_555
Pb0_3 Sm1_6 3.470844 1_455
Pb0_3 Sm1_7 3.470844 1_455
Pb0_3 Sm2_4 3.470844 1_455
Pb0_3 Sm2_5 3.470844 1_455
Pb0_3 Sm0_1 3.470844 1_555
Pb0_3 Sm0_0 3.470844 1_555
Pb0_3 Sm3_2 3.470844 1_555
Pb0_3 Sm3_3 3.470844 1_555
Pb0_4 Pd2_0 3.140165 1_555
Pb0_4 Pd0_6 3.140165 1_545
Pb0_4 Pd3_2 3.140165 1_545
Pb0_4 Pd1_4 3.140165 1_555
Pb0_4 Sm2_3 3.470844 1_544
Pb0_4 Sm2_2 3.470844 1_545
Pb0_4 Sm1_0 3.470844 1_555
Pb0_4 Sm1_1 3.470844 1_554
Pb0_4 Sm3_4 3.470844 1_555
Pb0_4 Sm3_5 3.470844 1_554
Pb0_4 Sm0_7 3.470844 1_544
Pb0_4 Sm0_6 3.470844 1_545
Pb0_4 Pb0_5 3.733127 1_554
Pb0_4 Pb0_5 3.733127 1_555
Pb0_5 Pd2_1 3.140165 1_555
Pb0_5 Pd0_7 3.140165 1_545
Pb0_5 Pd3_3 3.140165 1_545
Pb0_5 Pd1_5 3.140165 1_555
Pb0_5 Sm2_3 3.470844 1_545
Pb0_5 Sm2_2 3.470844 1_545
Pb0_5 Sm1_0 3.470844 1_555
Pb0_5 Sm1_1 3.470844 1_555
Pb0_5 Sm3_4 3.470844 1_555
Pb0_5 Sm3_5 3.470844 1_555
Pb0_5 Sm0_7 3.470844 1_545
Pb0_5 Sm0_6 3.470844 1_545
Pb0_6 Pd3_0 3.140165 1_555
Pb0_6 Pd2_2 3.140165 1_555
Pb0_6 Pd0_4 3.140165 1_555
Pb0_6 Pd1_6 3.140165 1_555
Pb0_6 Sm2_0 3.470844 1_555
Pb0_6 Sm2_1 3.470844 1_554
Pb0_6 Sm1_2 3.470844 1_555
Pb0_6 Sm1_3 3.470844 1_554
Pb0_6 Sm0_5 3.470844 1_554
Pb0_6 Sm0_4 3.470844 1_555
Pb0_6 Sm3_6 3.470844 1_555
Pb0_6 Sm3_7 3.470844 1_554
Pb0_6 Pb0_7 3.733127 1_555
Pb0_6 Pb0_7 3.733127 1_554
Pb0_7 Pd3_1 3.140165 1_555
Pb0_7 Pd2_3 3.140165 1_555
Pb0_7 Pd0_5 3.140165 1_555
Pb0_7 Pd1_7 3.140165 1_555
Pb0_7 Sm2_0 3.470844 1_555
Pb0_7 Sm2_1 3.470844 1_555
Pb0_7 Sm1_2 3.470844 1_555
Pb0_7 Sm1_3 3.470844 1_555
Pb0_7 Sm0_4 3.470844 1_555
Pb0_7 Sm3_6 3.470844 1_555
Pb0_7 Sm0_5 3.470844 1_555
Pb0_7 Sm3_7 3.470844 1_555
Pb1_0 Pd0_0 3.140165 1_555
Pb1_0 Pd1_0 3.140165 1_555
Pb1_0 Pd3_0 3.140165 1_555
Pb1_0 Pd2_0 3.140165 1_555
Pb1_0 Sm1_0 3.470844 1_555
Pb1_0 Sm3_0 3.470844 1_555
Pb1_0 Sm1_1 3.470844 1_554
Pb1_0 Sm3_1 3.470844 1_554
Pb1_0 Sm0_1 3.470844 1_554
Pb1_0 Sm2_0 3.470844 1_555
Pb1_0 Sm0_0 3.470844 1_555
Pb1_0 Sm2_1 3.470844 1_554
Pb1_0 Pb1_1 3.733127 1_554
Pb1_0 Pb1_1 3.733127 1_555
Pb1_1 Pd1_1 3.140165 1_555
Pb1_1 Pd0_1 3.140165 1_555
Pb1_1 Pd3_1 3.140165 1_555
Pb1_1 Pd2_1 3.140165 1_555
Pb1_1 Sm1_0 3.470844 1_555
Pb1_1 Sm3_0 3.470844 1_555
Pb1_1 Sm3_1 3.470844 1_555
Pb1_1 Sm1_1 3.470844 1_555
Pb1_1 Sm0_1 3.470844 1_555
Pb1_1 Sm2_0 3.470844 1_555
Pb1_1 Sm0_0 3.470844 1_555
Pb1_1 Sm2_1 3.470844 1_555
Pb1_2 Pd1_2 3.140165 1_555
Pb1_2 Pd0_2 3.140165 1_555
Pb1_2 Pd2_2 3.140165 1_555
Pb1_2 Pd3_2 3.140165 1_555
Pb1_2 Sm3_2 3.470844 1_555
Pb1_2 Sm3_3 3.470844 1_554
Pb1_2 Sm1_2 3.470844 1_555
Pb1_2 Sm1_3 3.470844 1_554
Pb1_2 Sm2_3 3.470844 1_554
Pb1_2 Sm0_2 3.470844 1_555
Pb1_2 Sm2_2 3.470844 1_555
Pb1_2 Sm0_3 3.470844 1_554
Pb1_2 Pb1_3 3.733127 1_554
Pb1_2 Pb1_3 3.733127 1_555
Pb1_3 Pd1_3 3.140165 1_555
Pb1_3 Pd0_3 3.140165 1_555
Pb1_3 Pd2_3 3.140165 1_555
Pb1_3 Pd3_3 3.140165 1_555
Pb1_3 Sm3_3 3.470844 1_555
Pb1_3 Sm3_2 3.470844 1_555
Pb1_3 Sm1_2 3.470844 1_555
Pb1_3 Sm1_3 3.470844 1_555
Pb1_3 Sm0_3 3.470844 1_555
Pb1_3 Sm0_2 3.470844 1_555
Pb1_3 Sm2_2 3.470844 1_555
Pb1_3 Sm2_3 3.470844 1_555
Pb1_4 Pd0_4 3.140165 1_555
Pb1_4 Pd1_4 3.140165 1_555
Pb1_4 Pd3_4 3.140165 1_555
Pb1_4 Pd2_4 3.140165 1_555
Pb1_4 Sm3_5 3.470844 1_554
Pb1_4 Sm0_5 3.470844 1_554
Pb1_4 Sm0_4 3.470844 1_555
Pb1_4 Sm3_4 3.470844 1_555
Pb1_4 Sm1_4 3.470844 1_555
Pb1_4 Sm1_5 3.470844 1_554
Pb1_4 Sm2_4 3.470844 1_555
Pb1_4 Sm2_5 3.470844 1_554
Pb1_4 Pb1_5 3.733127 1_554
Pb1_4 Pb1_5 3.733127 1_555
Pb1_5 Pd0_5 3.140165 1_555
Pb1_5 Pd1_5 3.140165 1_555
Pb1_5 Pd2_5 3.140165 1_555
Pb1_5 Pd3_5 3.140165 1_555
Pb1_5 Sm3_5 3.470844 1_555
Pb1_5 Sm0_4 3.470844 1_555
Pb1_5 Sm0_5 3.470844 1_555
Pb1_5 Sm3_4 3.470844 1_555
Pb1_5 Sm1_4 3.470844 1_555
Pb1_5 Sm1_5 3.470844 1_555
Pb1_5 Sm2_4 3.470844 1_555
Pb1_5 Sm2_5 3.470844 1_555
Pb1_6 Pd1_6 3.140165 1_555
Pb1_6 Pd0_6 3.140165 1_555
Pb1_6 Pd2_6 3.140165 1_555
Pb1_6 Pd3_6 3.140165 1_555
Pb1_6 Sm3_6 3.470844 1_555
Pb1_6 Sm3_7 3.470844 1_554
Pb1_6 Sm1_7 3.470844 1_554
Pb1_6 Sm1_6 3.470844 1_555
Pb1_6 Sm0_7 3.470844 1_554
Pb1_6 Sm0_6 3.470844 1_555
Pb1_6 Sm2_7 3.470844 1_554
Pb1_6 Sm2_6 3.470844 1_555
Pb1_6 Pb1_7 3.733127 1_555
Pb1_6 Pb1_7 3.733127 1_554
Pb1_7 Pd1_7 3.140165 1_555
Pb1_7 Pd0_7 3.140165 1_555
Pb1_7 Pd2_7 3.140165 1_555
Pb1_7 Pd3_7 3.140165 1_555
Pb1_7 Sm3_7 3.470844 1_555
Pb1_7 Sm3_6 3.470844 1_555
Pb1_7 Sm1_6 3.470844 1_555
Pb1_7 Sm1_7 3.470844 1_555
Pb1_7 Sm0_6 3.470844 1_555
Pb1_7 Sm0_7 3.470844 1_555
Pb1_7 Sm2_7 3.470844 1_555
Pb1_7 Sm2_6 3.470844 1_555
