# generated using pymatgen
data_Gd3(CuGe)4
_symmetry_space_group_name_H-M   'P 1'
_cell_length_a   4.22647828
_cell_length_b   6.63792783
_cell_length_c   8.01723204
_cell_angle_alpha   114.45861661
_cell_angle_beta   105.28302390
_cell_angle_gamma   90.00000213
_symmetry_Int_Tables_number   1
_chemical_formula_structural   Gd3(CuGe)4
_chemical_formula_sum   'Gd3 Cu4 Ge4'
_cell_volume   195.96746816
_cell_formula_units_Z   1
loop_
 _symmetry_equiv_pos_site_id
 _symmetry_equiv_pos_as_xyz
  1  'x, y, z'
loop_
 _atom_site_type_symbol
 _atom_site_label
 _atom_site_symmetry_multiplicity
 _atom_site_fract_x
 _atom_site_fract_y
 _atom_site_fract_z
 _atom_site_occupancy
  Gd  Gd0  1  0.13148759  0.13152878  0.26297518  1
  Gd  Gd1  1  0.00000000  0.50000000  -0.00000000  1
  Gd  Gd2  1  0.86851241  0.86847122  0.73702482  1
  Cu  Cu0  1  0.33159294  0.14371566  0.66318489  1
  Cu  Cu1  1  0.66840706  0.85628434  0.33681511  1
  Cu  Cu2  1  0.66807474  0.48026822  0.33614947  1
  Cu  Cu3  1  0.33192526  0.51973178  0.66385053  1
  Ge  Ge0  1  0.50008385  0.80964009  0.00016769  1
  Ge  Ge1  1  0.78329597  0.28345603  0.56659094  1
  Ge  Ge2  1  0.21670403  0.71654397  0.43340906  1
  Ge  Ge3  1  0.49991615  0.19035991  0.99983231  1
loop_
_geom_bond_atom_site_label_1
_geom_bond_atom_site_label_2
_geom_bond_distance
_geom_bond_site_symmetry_2
Gd0 Ge1 2.993912 1_455
Gd0 Ge1 2.993915 1_555
Gd0 Ge0 3.071511 1_445
Gd0 Ge0 3.071511 1_545
Gd0 Ge3 3.072785 1_454
Gd0 Ge3 3.072786 1_554
Gd0 Gd2 3.673817 1_444
Gd1 Ge0 2.947547 1_555
Gd1 Ge3 2.947547 1_454
Gd1 Ge0 2.947547 1_455
Gd1 Ge3 2.947547 1_554
Gd1 Ge2 3.027407 1_555
Gd1 Ge1 3.027407 1_454
Gd2 Ge2 2.993912 1_655
Gd2 Ge2 2.993915 1_555
Gd2 Ge3 3.071511 1_665
Gd2 Ge3 3.071511 1_565
Gd2 Ge0 3.072785 1_656
Gd2 Ge0 3.072786 1_556
Cu0 Ge3 2.486415 1_555
Cu0 Cu3 2.493763 1_555
Cu0 Ge1 2.545405 1_455
Cu0 Ge1 2.545405 1_555
Cu0 Ge2 2.621564 1_545
Cu0 Gd2 3.004270 1_545
Cu0 Gd2 3.004273 1_445
Cu0 Gd0 3.061255 1_555
Cu0 Gd1 3.399385 1_656
Cu0 Gd1 3.399388 1_556
Cu1 Ge0 2.486415 1_555
Cu1 Cu2 2.493763 1_555
Cu1 Ge2 2.545405 1_655
Cu1 Ge2 2.545405 1_555
Cu1 Ge1 2.621564 1_565
Cu1 Gd0 3.004270 1_565
Cu1 Gd0 3.004273 1_665
Cu1 Gd2 3.061255 1_555
Cu1 Gd1 3.399385 1_555
Cu1 Gd1 3.399388 1_655
Cu2 Ge3 2.484285 1_554
Cu2 Ge2 2.545323 1_655
Cu2 Ge2 2.545327 1_555
Cu2 Ge1 2.623265 1_555
Cu2 Gd0 3.003375 1_555
Cu2 Gd0 3.003375 1_655
Cu2 Gd2 3.064940 1_555
Cu2 Gd1 3.396112 1_555
Cu2 Gd1 3.396112 1_655
Cu3 Ge0 2.484285 1_556
Cu3 Ge1 2.545323 1_455
Cu3 Ge1 2.545327 1_555
Cu3 Ge2 2.623265 1_555
Cu3 Gd2 3.003375 1_555
Cu3 Gd2 3.003375 1_455
Cu3 Gd0 3.064940 1_555
Cu3 Gd1 3.396112 1_656
Cu3 Gd1 3.396112 1_556
Ge0 Ge3 2.528305 1_564
