# generated using pymatgen
data_MgSiO3
_symmetry_space_group_name_H-M   'P 1'
_cell_length_a   5.43706900
_cell_length_b   8.28487300
_cell_length_c   19.58167500
_cell_angle_alpha   90.00000000
_cell_angle_beta   90.00000000
_cell_angle_gamma   90.00000000
_symmetry_Int_Tables_number   1
_chemical_formula_structural   MgSiO3
_chemical_formula_sum   'Mg16 Si16 O48'
_cell_volume   882.06489525
_cell_formula_units_Z   16
loop_
 _symmetry_equiv_pos_site_id
 _symmetry_equiv_pos_as_xyz
  1  'x, y, z'
loop_
 _atom_site_type_symbol
 _atom_site_label
 _atom_site_symmetry_multiplicity
 _atom_site_fract_x
 _atom_site_fract_y
 _atom_site_fract_z
 _atom_site_occupancy
  Mg  Mg0  1  0.93983000  0.56122100  0.88296500  1
  Mg  Mg1  1  0.93938600  0.06584900  0.86896400  1
  Mg  Mg2  1  0.56061400  0.56584900  0.13103600  1
  Mg  Mg3  1  0.06061400  0.43415100  0.36896400  1
  Mg  Mg4  1  0.43938600  0.43415100  0.86896400  1
  Mg  Mg5  1  0.56017000  0.06122100  0.11703500  1
  Mg  Mg6  1  0.93938600  0.56584900  0.63103600  1
  Mg  Mg7  1  0.93983000  0.06122100  0.61703500  1
  Mg  Mg8  1  0.56061400  0.06584900  0.36896400  1
  Mg  Mg9  1  0.43983000  0.93877900  0.88296500  1
  Mg  Mg10  1  0.56017000  0.56122100  0.38296500  1
  Mg  Mg11  1  0.06017000  0.93877900  0.38296500  1
  Mg  Mg12  1  0.06061400  0.93415100  0.13103600  1
  Mg  Mg13  1  0.06017000  0.43877900  0.11703500  1
  Mg  Mg14  1  0.43983000  0.43877900  0.61703500  1
  Mg  Mg15  1  0.43938600  0.93415100  0.63103600  1
  Si  Si0  1  0.27547300  0.14860000  0.25793000  1
  Si  Si1  1  0.22452700  0.14860000  0.75793000  1
  Si  Si2  1  0.25076300  0.65013700  0.49139400  1
  Si  Si3  1  0.24923700  0.15013700  0.50860600  1
  Si  Si4  1  0.77547300  0.35140000  0.25793000  1
  Si  Si5  1  0.72452700  0.85140000  0.74207000  1
  Si  Si6  1  0.74923700  0.84986300  0.99139400  1
  Si  Si7  1  0.74923700  0.34986300  0.50860600  1
  Si  Si8  1  0.75076300  0.84986300  0.49139400  1
  Si  Si9  1  0.24923700  0.65013700  0.99139400  1
  Si  Si10  1  0.75076300  0.34986300  0.00860600  1
  Si  Si11  1  0.27547300  0.64860000  0.24207000  1
  Si  Si12  1  0.77547300  0.85140000  0.24207000  1
  Si  Si13  1  0.25076300  0.15013700  0.00860600  1
  Si  Si14  1  0.22452700  0.64860000  0.74207000  1
  Si  Si15  1  0.72452700  0.35140000  0.75793000  1
  O  O0  1  0.26383900  0.62436800  0.07247100  1
  O  O1  1  0.23616100  0.62436800  0.57247100  1
  O  O2  1  0.00373000  0.75146400  0.46044300  1
  O  O3  1  0.71601700  0.51117600  0.80587500  1
  O  O4  1  0.73616100  0.87563200  0.57247100  1
  O  O5  1  0.27389100  0.61609400  0.32304200  1
  O  O6  1  0.27389100  0.11609400  0.17695800  1
  O  O7  1  0.21601700  0.48882400  0.69412500  1
  O  O8  1  0.46253400  0.76058500  0.71333600  1
  O  O9  1  0.22610900  0.61609400  0.82304200  1
  O  O10  1  0.77389100  0.88390600  0.32304200  1
  O  O11  1  0.23616100  0.12436800  0.92752900  1
  O  O12  1  0.22610900  0.11609400  0.67695800  1
  O  O13  1  0.53746600  0.23941500  0.28666400  1
  O  O14  1  0.72675400  0.51365500  0.55299600  1
  O  O15  1  0.26383900  0.12436800  0.42752900  1
  O  O16  1  0.49627000  0.75146400  0.96044300  1
  O  O17  1  0.50373000  0.24853600  0.03955700  1
  O  O18  1  0.03746600  0.26058500  0.28666400  1
  O  O19  1  0.53746600  0.73941500  0.21333600  1
  O  O20  1  0.96253400  0.73941500  0.71333600  1
  O  O21  1  0.03746600  0.76058500  0.21333600  1
  O  O22  1  0.99627000  0.24853600  0.53955700  1
  O  O23  1  0.77324600  0.51365500  0.05299600  1
  O  O24  1  0.46253400  0.26058500  0.78666400  1
  O  O25  1  0.76383900  0.37563200  0.42752900  1
  O  O26  1  0.00373000  0.25146400  0.03955700  1
  O  O27  1  0.28398300  0.98882400  0.30587500  1
  O  O28  1  0.78398300  0.01117600  0.19412500  1
  O  O29  1  0.50373000  0.74853600  0.46044300  1
  O  O30  1  0.72610900  0.88390600  0.82304200  1
  O  O31  1  0.22675400  0.98634500  0.55299600  1
  O  O32  1  0.27324600  0.48634500  0.44700400  1
  O  O33  1  0.73616100  0.37563200  0.92752900  1
  O  O34  1  0.22675400  0.48634500  0.94700400  1
  O  O35  1  0.27324600  0.98634500  0.05299600  1
  O  O36  1  0.78398300  0.51117600  0.30587500  1
  O  O37  1  0.99627000  0.74853600  0.96044300  1
  O  O38  1  0.76383900  0.87563200  0.07247100  1
  O  O39  1  0.21601700  0.98882400  0.80587500  1
  O  O40  1  0.49627000  0.25146400  0.53955700  1
  O  O41  1  0.77324600  0.01365500  0.44700400  1
  O  O42  1  0.28398300  0.48882400  0.19412500  1
  O  O43  1  0.72610900  0.38390600  0.67695800  1
  O  O44  1  0.71601700  0.01117600  0.69412500  1
  O  O45  1  0.72675400  0.01365500  0.94700400  1
  O  O46  1  0.96253400  0.23941500  0.78666400  1
  O  O47  1  0.77389100  0.38390600  0.17695800  1
loop_
_geom_bond_atom_site_label_1
_geom_bond_atom_site_label_2
_geom_bond_distance
_geom_bond_site_symmetry_2
Mg0 O3 1.982792 1_555
Mg0 O9 2.001568 1_655
Mg0 O33 2.086122 1_555
Mg0 O34 2.095469 1_655
Mg0 O37 2.191859 1_555
Mg1 O45 1.964382 1_555
Mg1 O11 2.038103 1_655
Mg1 O39 2.048319 1_645
Mg1 O30 2.103680 1_545
Mg1 O46 2.163508 1_555
Mg2 O23 1.964382 1_555
Mg2 O0 2.038103 1_555
Mg2 O42 2.048319 1_555
Mg2 O47 2.103680 1_555
Mg2 O19 2.163508 1_555
Mg3 O32 1.964382 1_555
Mg3 O25 2.038103 1_455
Mg3 O36 2.048319 1_455
Mg3 O5 2.103680 1_555
Mg3 O18 2.163508 1_555
Mg4 O34 1.964382 1_555
Mg4 O33 2.038103 1_555
Mg4 O3 2.048319 1_555
Mg4 O9 2.103680 1_555
Mg4 O24 2.163508 1_555
Mg5 O28 1.982792 1_555
Mg5 O6 2.001568 1_555
Mg5 O38 2.086122 1_545
Mg5 O35 2.095469 1_545
Mg5 O17 2.191859 1_555
Mg6 O14 1.964382 1_555
Mg6 O1 2.038103 1_655
Mg6 O7 2.048319 1_655
Mg6 O43 2.103680 1_555
Mg6 O20 2.163508 1_555
Mg7 O44 1.982792 1_555
Mg7 O12 2.001568 1_655
Mg7 O4 2.086122 1_545
Mg7 O31 2.095469 1_645
Mg7 O22 2.191859 1_555
Mg8 O41 1.964382 1_555
Mg8 O15 2.038103 1_555
Mg8 O27 2.048319 1_545
Mg8 O10 2.103680 1_545
Mg8 O13 2.163508 1_555
Mg9 O39 1.982792 1_555
Mg9 O30 2.001568 1_555
Mg9 O11 2.086122 1_565
Mg9 O45 2.095469 1_565
Mg9 O16 2.191859 1_555
Mg10 O36 1.982792 1_555
Mg10 O5 2.001568 1_555
Mg10 O25 2.086122 1_555
Mg10 O32 2.095469 1_555
Mg10 O29 2.191859 1_555
Mg11 O27 1.982792 1_555
Mg11 O10 2.001568 1_455
Mg11 O15 2.086122 1_565
Mg11 O41 2.095469 1_465
Mg11 O2 2.191859 1_555
Mg12 O35 1.964382 1_555
Mg12 O38 2.038103 1_455
Mg12 O28 2.048319 1_465
Mg12 O6 2.103680 1_565
Mg12 O21 2.163508 1_555
Mg13 O42 1.982792 1_555
Mg13 O47 2.001568 1_455
Mg13 O0 2.086122 1_555
Mg13 O23 2.095469 1_455
Mg13 O26 2.191859 1_555
Mg14 O7 1.982792 1_555
Mg14 O43 2.001568 1_555
Mg14 O1 2.086122 1_555
Mg14 O14 2.095469 1_555
Mg14 O40 2.191859 1_555
Mg15 O31 1.964382 1_555
Mg15 O4 2.038103 1_555
Mg15 O44 2.048319 1_565
Mg15 O12 2.103680 1_565
Mg15 O8 2.163508 1_555
O0 Si9 1.603880 1_554
O1 Si2 1.603880 1_555
O2 Si2 1.695897 1_555
O2 Si8 1.709864 1_455
O3 Si15 1.623519 1_555
O4 Si8 1.603880 1_555
O5 Si11 1.608299 1_555
O6 Si0 1.608299 1_555
O7 Si14 1.623519 1_555
O8 Si14 1.688774 1_555
O8 Si5 1.706401 1_555
O9 Si14 1.608299 1_555
O10 Si12 1.608299 1_555
O11 Si13 1.603880 1_556
O12 Si1 1.608299 1_555
O13 Si4 1.688774 1_555
O13 Si0 1.706401 1_555
O14 Si7 1.616151 1_555
O15 Si3 1.603880 1_555
O16 Si9 1.695897 1_555
O16 Si6 1.709864 1_555
O17 Si10 1.695897 1_555
O17 Si13 1.709864 1_555
O18 Si0 1.688774 1_555
O18 Si4 1.706401 1_455
O19 Si12 1.688774 1_555
O19 Si11 1.706401 1_555
O20 Si5 1.688774 1_555
O20 Si14 1.706401 1_655
O21 Si11 1.688774 1_555
O21 Si12 1.706401 1_455
O22 Si7 1.695897 1_555
O22 Si3 1.709864 1_655
O23 Si10 1.616151 1_555
O24 Si1 1.688774 1_555
O24 Si15 1.706401 1_555
O25 Si7 1.603880 1_555
O26 Si13 1.695897 1_555
O26 Si10 1.709864 1_455
O27 Si0 1.623519 1_565
O28 Si12 1.623519 1_545
O29 Si8 1.695897 1_555
O29 Si2 1.709864 1_555
O30 Si5 1.608299 1_555
O31 Si3 1.616151 1_565
O32 Si2 1.616151 1_555
O33 Si10 1.603880 1_556
O34 Si9 1.616151 1_555
O35 Si13 1.616151 1_565
O36 Si4 1.623519 1_555
O37 Si6 1.695897 1_555
O37 Si9 1.709864 1_655
O38 Si6 1.603880 1_554
O39 Si1 1.623519 1_565
O40 Si3 1.695897 1_555
O40 Si7 1.709864 1_555
O41 Si8 1.616151 1_545
O42 Si11 1.623519 1_555
O43 Si15 1.608299 1_555
O44 Si5 1.623519 1_545
O45 Si6 1.616151 1_545
O46 Si15 1.688774 1_555
O46 Si1 1.706401 1_655
O47 Si4 1.608299 1_555
