# generated using pymatgen
data_NaZr2AgF11
_symmetry_space_group_name_H-M   'P 1'
_cell_length_a   5.82837900
_cell_length_b   5.97612789
_cell_length_c   7.97724159
_cell_angle_alpha   111.69199557
_cell_angle_beta   96.26142801
_cell_angle_gamma   106.21974378
_symmetry_Int_Tables_number   1
_chemical_formula_structural   NaZr2AgF11
_chemical_formula_sum   'Na1 Zr2 Ag1 F11'
_cell_volume   240.78258941
_cell_formula_units_Z   1
loop_
 _symmetry_equiv_pos_site_id
 _symmetry_equiv_pos_as_xyz
  1  'x, y, z'
loop_
 _atom_site_type_symbol
 _atom_site_label
 _atom_site_symmetry_multiplicity
 _atom_site_fract_x
 _atom_site_fract_y
 _atom_site_fract_z
 _atom_site_occupancy
  Na  Na0  1  0.00000000  0.00000000  0.00000000  1
  Zr  Zr0  1  0.50470000  0.50687300  0.23009800  1
  Zr  Zr1  1  0.49530000  0.49312700  0.76990200  1
  Ag  Ag0  1  0.00000000  0.00000000  0.50000000  1
  F  F0  1  0.26202300  0.73192400  0.11017900  1
  F  F1  1  0.33607900  0.33307700  0.01145300  1
  F  F2  1  0.66392100  0.66692300  0.98854700  1
  F  F3  1  0.77944100  0.79556600  0.68886600  1
  F  F4  1  0.79611800  0.77199400  0.28264100  1
  F  F5  1  0.20388200  0.22800600  0.71735900  1
  F  F6  1  0.73797700  0.26807600  0.88982100  1
  F  F7  1  0.22055900  0.20443400  0.31113400  1
  F  F8  1  0.73223000  0.25366300  0.34661500  1
  F  F9  1  0.26777000  0.74633700  0.65338500  1
  F  F10  1  0.50000000  0.50000000  0.50000000  1
loop_
_geom_bond_atom_site_label_1
_geom_bond_atom_site_label_2
_geom_bond_distance
_geom_bond_site_symmetry_2
Ag0 F5 1.781768 1_555
Ag0 F4 1.781768 1_445
Ag0 F3 2.514131 1_445
Ag0 F7 2.514131 1_555
Ag0 F8 2.916705 1_455
Ag0 F9 2.916705 1_545
F0 F1 2.397731 1_555
F0 Zr0 2.538345 1_555
F0 F2 2.702725 1_554
F0 F7 2.778740 1_565
F0 Na0 2.790384 1_565
F0 F4 3.202889 1_455
F0 F8 3.246746 1_565
F0 F6 3.255756 1_454
F1 Zr0 1.674361 1_555
F1 F5 2.176780 1_554
F1 Na0 2.335751 1_555
F1 F6 2.702725 1_554
F2 Zr1 1.674361 1_555
F2 F4 2.176780 1_556
F2 Na0 2.335751 1_666
F2 F6 2.397731 1_555
F3 Na0 2.343178 1_666
F3 Zr1 2.419159 1_555
F3 F6 2.778740 1_565
F3 F9 2.885212 1_555
F3 F9 2.974772 1_655
F4 Zr0 1.849678 1_555
F4 F8 2.870408 1_565
F4 F8 3.249614 1_555
F5 Zr1 1.849678 1_555
F5 F9 2.870408 1_545
F5 F6 3.202889 1_455
F5 F9 3.249614 1_555
F6 Zr1 2.538345 1_555
F6 Na0 2.790384 1_656
F6 F9 3.246746 1_545
F7 Na0 2.343178 1_555
F7 Zr0 2.419159 1_555
F7 F8 2.885212 1_555
F7 F8 2.974772 1_455
F8 Zr0 2.608505 1_555
F9 Zr1 2.608505 1_555
F10 F3 1.983149 1_555
F10 F7 1.983149 1_555
F10 Zr1 2.171583 1_555
F10 Zr0 2.171583 1_555
F10 F9 2.374704 1_555
F10 F8 2.374704 1_555
