# generated using pymatgen
data_Ca6Ti5AlSi6O29F
_symmetry_space_group_name_H-M   'P 1'
_cell_length_a   5.47736600
_cell_length_b   5.47784291
_cell_length_c   39.16856648
_cell_angle_alpha   92.04592349
_cell_angle_beta   92.02653511
_cell_angle_gamma   105.92578166
_symmetry_Int_Tables_number   1
_chemical_formula_structural   Ca6Ti5AlSi6O29F
_chemical_formula_sum   'Ca12 Ti10 Al2 Si12 O58 F2'
_cell_volume   1128.14419687
_cell_formula_units_Z   2
loop_
 _symmetry_equiv_pos_site_id
 _symmetry_equiv_pos_as_xyz
  1  'x, y, z'
loop_
 _atom_site_type_symbol
 _atom_site_label
 _atom_site_symmetry_multiplicity
 _atom_site_fract_x
 _atom_site_fract_y
 _atom_site_fract_z
 _atom_site_occupancy
  Ca  Ca0  1  0.96029400  0.29077600  0.04576100  1
  Ca  Ca1  1  0.46408000  0.79896200  0.20755500  1
  Ca  Ca2  1  0.95426800  0.29172300  0.37410100  1
  Ca  Ca3  1  0.45509400  0.79189900  0.54088000  1
  Ca  Ca4  1  0.54534300  0.21924300  0.12785800  1
  Ca  Ca5  1  0.95534300  0.29184000  0.70758100  1
  Ca  Ca6  1  0.04104200  0.70422800  0.29017600  1
  Ca  Ca7  1  0.45638000  0.79117800  0.87474400  1
  Ca  Ca8  1  0.54182100  0.20491900  0.45751800  1
  Ca  Ca9  1  0.04191700  0.70528800  0.62422900  1
  Ca  Ca10  1  0.54168500  0.20553900  0.79100000  1
  Ca  Ca11  1  0.03766700  0.70630700  0.95894500  1
  Ti  Ti0  1  0.47914300  0.49369700  0.99798300  1
  Ti  Ti1  1  0.25085700  0.24420900  0.24665700  1
  Ti  Ti2  1  0.49035300  0.49857900  0.33095900  1
  Ti  Ti3  1  0.74848700  0.74081800  0.41461500  1
  Ti  Ti4  1  0.99122500  0.99885500  0.49811000  1
  Ti  Ti5  1  0.24903800  0.24156000  0.58150700  1
  Ti  Ti6  1  0.49166100  0.49906200  0.66484900  1
  Ti  Ti7  1  0.74879700  0.74131500  0.74813300  1
  Ti  Ti8  1  0.99045100  0.99806100  0.83139400  1
  Ti  Ti9  1  0.24658800  0.23811100  0.91480000  1
  Al  Al0  1  0.74941500  0.74804700  0.08448200  1
  Al  Al1  1  0.00919500  0.00171900  0.16700200  1
  Si  Si0  1  0.19135800  0.56223600  0.12475000  1
  Si  Si1  1  0.69217500  0.05852600  0.29112500  1
  Si  Si2  1  0.19186400  0.55871400  0.45845900  1
  Si  Si3  1  0.31019400  0.93896100  0.04464600  1
  Si  Si4  1  0.69194700  0.05884800  0.62520300  1
  Si  Si5  1  0.81330000  0.44427900  0.20579600  1
  Si  Si6  1  0.19180100  0.55870600  0.79187100  1
  Si  Si7  1  0.30823700  0.94170700  0.37490500  1
  Si  Si8  1  0.69151800  0.05992200  0.95979400  1
  Si  Si9  1  0.80871600  0.44185800  0.54182600  1
  Si  Si10  1  0.30878000  0.94184100  0.70851900  1
  Si  Si11  1  0.80881400  0.44165800  0.87532100  1
  O  O0  1  0.30842800  0.16943000  0.01788400  1
  O  O1  1  0.91490900  0.50442500  0.10192900  1
  O  O2  1  0.79892300  0.67275700  0.18015100  1
  O  O3  1  0.42598000  0.55539900  0.09898300  1
  O  O4  1  0.24592000  0.83709000  0.14654900  1
  O  O5  1  0.41674400  0.99477600  0.26943200  1
  O  O6  1  0.29555000  0.16376700  0.34825000  1
  O  O7  1  0.19484600  0.05658700  0.20749300  1
  O  O8  1  0.24814200  0.66692200  0.02108800  1
  O  O9  1  0.07368900  0.94570000  0.06885500  1
  O  O10  1  0.91423200  0.04543300  0.26458000  1
  O  O11  1  0.75408400  0.33434100  0.31316600  1
  O  O12  1  0.91618300  0.49472300  0.43691500  1
  O  O13  1  0.58760700  0.99335000  0.06555900  1
  O  O14  1  0.79611800  0.66355900  0.51516600  1
  O  O15  1  0.69738300  0.55597600  0.37529200  1
  O  O16  1  0.75390100  0.16633500  0.18425100  1
  O  O17  1  0.59085600  0.45073100  0.23351500  1
  O  O18  1  0.41362600  0.54595400  0.43177400  1
  O  O19  1  0.25489000  0.83468700  0.48027800  1
  O  O20  1  0.30735000  0.44830400  0.29133100  1
  O  O21  1  0.18980000  0.32507000  0.14962100  1
  O  O22  1  0.41614500  0.99481600  0.60370500  1
  O  O23  1  0.08622300  0.50408400  0.22880000  1
  O  O24  1  0.29615600  0.16359100  0.68183900  1
  O  O25  1  0.19797600  0.05549700  0.54225000  1
  O  O26  1  0.24426900  0.66602300  0.35336800  1
  O  O27  1  0.08881100  0.95664200  0.40223300  1
  O  O28  1  0.91363800  0.04610800  0.59849600  1
  O  O29  1  0.75499900  0.33482300  0.64697300  1
  O  O30  1  0.80559500  0.94787100  0.45885400  1
  O  O31  1  0.70556500  0.83888700  0.31860300  1
  O  O32  1  0.91610400  0.49481200  0.77038600  1
  O  O33  1  0.58427100  0.00465500  0.39680400  1
  O  O34  1  0.79612300  0.66318600  0.84860600  1
  O  O35  1  0.69797300  0.55515800  0.70891100  1
  O  O36  1  0.74478800  0.16627100  0.52036700  1
  O  O37  1  0.58908400  0.45696900  0.56907600  1
  O  O38  1  0.41348200  0.54609000  0.76518800  1
  O  O39  1  0.25460900  0.83478500  0.81363700  1
  O  O40  1  0.30532400  0.44800400  0.62559800  1
  O  O41  1  0.20677600  0.33909300  0.48569500  1
  O  O42  1  0.41600500  0.99725300  0.93779400  1
  O  O43  1  0.08486500  0.50500800  0.56364700  1
  O  O44  1  0.19687300  0.05241300  0.87568500  1
  O  O45  1  0.24483500  0.66622600  0.68705200  1
  O  O46  1  0.08895500  0.95682900  0.73573300  1
  O  O47  1  0.91381300  0.04975400  0.93274100  1
  O  O48  1  0.75257000  0.33551000  0.98159200  1
  O  O49  1  0.80456100  0.94772600  0.79222500  1
  O  O50  1  0.70687800  0.83916600  0.65240400  1
  O  O51  1  0.58490400  0.00489000  0.73031000  1
  O  O52  1  0.74493500  0.16605900  0.85380700  1
  O  O53  1  0.58755800  0.45588000  0.90243500  1
  O  O54  1  0.30072800  0.44734700  0.95921900  1
  O  O55  1  0.20642900  0.33833900  0.81904200  1
  O  O56  1  0.08518100  0.50410800  0.89702300  1
  O  O57  1  0.70436300  0.83387000  0.98600900  1
  F  F0  1  0.70371700  0.56019900  0.04365800  1
  F  F1  1  0.80691000  0.94355200  0.12511900  1
loop_
_geom_bond_atom_site_label_1
_geom_bond_atom_site_label_2
_geom_bond_distance
_geom_bond_site_symmetry_2
Ca0 F0 2.301897 1_555
Ca0 O9 2.346014 1_645
Ca0 O13 2.408292 1_545
Ca0 O0 2.461956 1_655
Ca0 O8 2.476375 1_655
Ca0 O1 2.507204 1_555
Ca0 O48 2.768852 1_554
Ca0 O3 3.214378 1_655
Ca1 O7 2.303991 1_565
Ca1 O2 2.403313 1_555
Ca1 O16 2.425588 1_565
Ca1 O23 2.443002 1_555
Ca1 O17 2.443429 1_555
Ca1 O5 2.665187 1_555
Ca1 O4 2.674314 1_555
Ca2 O15 2.279232 1_555
Ca2 O26 2.410267 1_655
Ca2 O6 2.411050 1_655
Ca2 O33 2.418490 1_555
Ca2 O27 2.440428 1_645
Ca2 O11 2.635993 1_555
Ca2 O12 2.702141 1_555
Ca3 O25 2.277510 1_565
Ca3 O36 2.406447 1_565
Ca3 O14 2.408509 1_555
Ca3 O43 2.419980 1_555
Ca3 O37 2.439408 1_555
Ca3 O19 2.624605 1_555
Ca3 O22 2.703402 1_555
Ca4 F1 2.351912 1_545
Ca4 O21 2.357302 1_555
Ca4 O3 2.419601 1_555
Ca4 O4 2.432732 1_545
Ca4 O1 2.468346 1_555
Ca4 O16 2.513333 1_555
Ca4 O13 2.742393 1_545
Ca4 O2 3.136558 1_555
Ca5 O35 2.277339 1_555
Ca5 O45 2.406259 1_655
Ca5 O24 2.407737 1_655
Ca5 O51 2.420268 1_555
Ca5 O46 2.437961 1_645
Ca5 O29 2.625382 1_555
Ca5 O32 2.703175 1_555
Ca6 O20 2.284117 1_555
Ca6 O10 2.403742 1_465
Ca6 O5 2.416870 1_555
Ca6 O11 2.422690 1_455
Ca6 O31 2.447507 1_455
Ca6 O23 2.654296 1_555
Ca6 O26 2.716466 1_555
Ca7 O44 2.277223 1_565
Ca7 O34 2.408764 1_555
Ca7 O52 2.412122 1_565
Ca7 O56 2.416002 1_555
Ca7 O53 2.424356 1_555
Ca7 O39 2.646848 1_555
Ca7 O42 2.720035 1_555
Ca8 O30 2.277969 1_545
Ca8 O12 2.407928 1_555
Ca8 O18 2.409160 1_555
Ca8 O19 2.420087 1_545
Ca8 O41 2.439593 1_555
Ca8 O33 2.627848 1_555
Ca8 O36 2.704360 1_555
Ca9 O40 2.277410 1_555
Ca9 O22 2.405564 1_555
Ca9 O28 2.408172 1_465
Ca9 O29 2.420652 1_455
Ca9 O50 2.438732 1_455
Ca9 O43 2.623910 1_555
Ca9 O45 2.703846 1_555
Ca10 O49 2.277254 1_545
Ca10 O32 2.407037 1_555
Ca10 O38 2.408037 1_555
Ca10 O39 2.420331 1_545
Ca10 O55 2.434411 1_555
Ca10 O51 2.628867 1_555
Ca10 O52 2.704527 1_555
Ca11 O54 2.282586 1_555
Ca11 O57 2.393529 1_455
Ca11 O48 2.415988 1_455
Ca11 O47 2.417058 1_465
Ca11 O42 2.433930 1_555
Ca11 O56 2.681065 1_555
Ca11 O8 2.697359 1_556
Al0 F0 1.841526 1_555
Al0 F1 1.854006 1_555
Al0 O3 1.913822 1_555
Al0 O1 1.937734 1_555
Al0 O9 1.941788 1_655
Al0 O13 1.954144 1_555
Al1 O7 1.823149 1_555
Al1 F1 1.913316 1_445
Al1 O21 1.936904 1_555
Al1 O4 1.949328 1_545
Al1 O2 1.951465 1_445
Al1 O16 1.985006 1_455
O0 Si3 1.671284 1_545
O0 Ti0 1.968771 1_554
O1 Si0 1.677209 1_655
O2 Si5 1.649197 1_555
O3 Si0 1.669418 1_555
O4 Si0 1.651798 1_555
O5 Si1 1.648918 1_565
O5 Ti1 2.049224 1_565
O6 Si7 1.645124 1_545
O6 Ti2 2.006684 1_555
O7 Ti1 1.784567 1_555
O8 Si3 1.670120 1_555
O8 Ti0 1.999723 1_554
O9 Si3 1.639893 1_555
O10 Si1 1.642414 1_555
O10 Ti1 2.030386 1_655
O11 Si1 1.657719 1_555
O11 Ti2 2.030144 1_555
O12 Si2 1.647227 1_655
O12 Ti3 2.032433 1_555
O13 Si3 1.647637 1_555
O14 Si9 1.643624 1_555
O14 Ti4 2.005682 1_555
O15 Ti3 1.782833 1_555
O15 Ti2 2.006526 1_555
O16 Si5 1.659248 1_555
O17 Si5 1.667030 1_555
O17 Ti1 1.991520 1_555
O18 Si2 1.644370 1_555
O18 Ti3 2.004802 1_555
O19 Si2 1.653900 1_555
O19 Ti4 2.030137 1_455
O20 Ti2 1.788235 1_555
O20 Ti1 2.009902 1_555
O21 Si0 1.649771 1_555
O22 Si4 1.646921 1_565
O22 Ti5 2.031550 1_565
O23 Si5 1.663975 1_455
O23 Ti1 2.014906 1_555
O24 Si10 1.644380 1_545
O24 Ti6 2.006079 1_555
O25 Ti5 1.783992 1_555
O25 Ti4 1.999553 1_445
O26 Si7 1.647030 1_555
O26 Ti2 2.033028 1_555
O27 Si7 1.653979 1_555
O27 Ti3 2.000795 1_455
O28 Si4 1.644614 1_555
O28 Ti5 2.005491 1_655
O29 Si4 1.652987 1_555
O29 Ti6 2.029478 1_555
O30 Ti4 1.782963 1_555
O30 Ti3 2.003354 1_555
O31 Si1 1.657290 1_565
O31 Ti2 1.999422 1_555
O32 Si6 1.646241 1_655
O32 Ti7 2.032106 1_555
O33 Si7 1.655794 1_545
O33 Ti3 2.031138 1_545
O34 Si11 1.644428 1_555
O34 Ti8 2.004992 1_555
O35 Ti7 1.783143 1_555
O35 Ti6 1.995898 1_555
O36 Si9 1.645156 1_555
O36 Ti4 2.031879 1_545
O37 Si9 1.653011 1_555
O37 Ti5 1.999399 1_555
O38 Si6 1.643800 1_555
O38 Ti7 2.005754 1_555
O39 Si6 1.653471 1_555
O39 Ti8 2.028330 1_455
O40 Ti6 1.784714 1_555
O40 Ti5 1.996983 1_555
O41 Si2 1.652710 1_555
O41 Ti4 2.000445 1_445
O42 Si8 1.655396 1_565
O42 Ti9 2.027477 1_565
O43 Si9 1.654796 1_455
O43 Ti5 2.029868 1_555
O44 Ti9 1.778586 1_555
O44 Ti8 2.004059 1_445
O45 Si10 1.645427 1_555
O45 Ti6 2.031816 1_555
O46 Si10 1.652723 1_555
O46 Ti7 1.999713 1_455
O47 Si8 1.653086 1_555
O47 Ti9 1.997757 1_655
O48 Si8 1.652425 1_555
O48 Ti0 2.036295 1_555
O49 Ti8 1.780936 1_555
O49 Ti7 1.997019 1_555
O50 Si4 1.652071 1_565
O50 Ti6 1.999596 1_555
O51 Si10 1.654155 1_545
O51 Ti7 2.028983 1_545
O52 Si11 1.646241 1_555
O52 Ti8 2.032479 1_545
O53 Si11 1.655168 1_555
O53 Ti9 2.007031 1_555
O54 Ti0 1.748190 1_555
O54 Ti9 2.015746 1_555
O55 Si6 1.653783 1_555
O55 Ti8 2.000688 1_445
O56 Si11 1.653818 1_455
O56 Ti9 2.031106 1_555
O57 Si8 1.651088 1_565
O57 Ti0 2.013924 1_555
F0 Ti0 2.097215 1_554
