# generated using pymatgen
data_SrAl7Tl5Si5O24
_symmetry_space_group_name_H-M   'P 1'
_cell_length_a   12.48342000
_cell_length_b   12.56027191
_cell_length_c   12.56478441
_cell_angle_alpha   91.08837218
_cell_angle_beta   90.17054989
_cell_angle_gamma   90.30837019
_symmetry_Int_Tables_number   1
_chemical_formula_structural   SrAl7Tl5Si5O24
_chemical_formula_sum   'Sr2 Al14 Tl10 Si10 O48'
_cell_volume   1969.70395347
_cell_formula_units_Z   2
loop_
 _symmetry_equiv_pos_site_id
 _symmetry_equiv_pos_as_xyz
  1  'x, y, z'
loop_
 _atom_site_type_symbol
 _atom_site_label
 _atom_site_symmetry_multiplicity
 _atom_site_fract_x
 _atom_site_fract_y
 _atom_site_fract_z
 _atom_site_occupancy
  Sr  Sr0  1  0.82540400  0.69022300  0.35075600  1
  Sr  Sr1  1  0.28153700  0.51723800  0.45704800  1
  Al  Al0  1  0.18423400  0.37086600  0.00603600  1
  Al  Al1  1  0.36822300  0.16828400  0.00000900  1
  Al  Al2  1  0.80814000  0.36829400  0.01075400  1
  Al  Al3  1  0.00783200  0.81869700  0.37602800  1
  Al  Al4  1  0.80991200  0.99295900  0.37454600  1
  Al  Al5  1  0.00368900  0.17736700  0.36385400  1
  Al  Al6  1  0.18387400  0.99650400  0.61693800  1
  Al  Al7  1  0.99028000  0.80005700  0.61673500  1
  Al  Al8  1  0.81460800  0.00527200  0.63338200  1
  Al  Al9  1  0.00082200  0.17946900  0.63291100  1
  Al  Al10  1  0.36488200  0.97721700  0.82114000  1
  Al  Al11  1  0.62585000  0.98471200  0.83103200  1
  Al  Al12  1  0.99826200  0.63326700  0.83287400  1
  Al  Al13  1  0.99259800  0.37358000  0.82061500  1
  Tl  Tl0  1  0.25237100  0.75342600  0.26086500  1
  Tl  Tl1  1  0.01408500  0.40891300  0.54462600  1
  Tl  Tl2  1  0.68433000  0.82377300  0.59611900  1
  Tl  Tl3  1  0.27314700  0.77554600  0.62453600  1
  Tl  Tl4  1  0.88869900  0.99850400  0.14721500  1
  Tl  Tl5  1  0.13413400  0.15257000  0.12203500  1
  Tl  Tl6  1  0.12316700  0.87046800  0.86274500  1
  Tl  Tl7  1  0.86051200  0.86820500  0.85531600  1
  Tl  Tl8  1  0.14109600  0.15006900  0.85621900  1
  Tl  Tl9  1  0.87259200  0.14112200  0.87868300  1
  Si  Si0  1  0.37476200  0.80158500  0.01137300  1
  Si  Si1  1  0.18768500  0.62362900  0.00369800  1
  Si  Si2  1  0.62250400  0.80267200  0.01240700  1
  Si  Si3  1  0.81209700  0.62608900  0.01857200  1
  Si  Si4  1  0.63048500  0.17052100  0.00748900  1
  Si  Si5  1  0.62056800  0.99320300  0.18599000  1
  Si  Si6  1  0.99623900  0.37411600  0.19269700  1
  Si  Si7  1  0.37514200  0.99077900  0.18667000  1
  Si  Si8  1  0.00348700  0.62149300  0.18402200  1
  Si  Si9  1  0.19327400  0.00632300  0.36940900  1
  O  O0  1  0.29069800  0.70317700  0.03267900  1
  O  O1  1  0.70735200  0.70538700  0.03226800  1
  O  O2  1  0.50415600  0.19212700  0.99712200  1
  O  O3  1  0.77320200  0.50487900  0.00936000  1
  O  O4  1  0.70281900  0.27633300  0.02050000  1
  O  O5  1  0.62815400  0.87938600  0.11861600  1
  O  O6  1  0.10554800  0.35661900  0.12319600  1
  O  O7  1  0.36166500  0.87314500  0.12352100  1
  O  O8  1  0.10614700  0.64241200  0.10780000  1
  O  O9  1  0.88950400  0.35399900  0.12421200  1
  O  O10  1  0.65376400  0.09379900  0.11295600  1
  O  O11  1  0.88225100  0.64618000  0.13497400  1
  O  O12  1  0.33833800  0.08618500  0.11198900  1
  O  O13  1  0.49723800  0.00327300  0.23012000  1
  O  O14  1  0.00152300  0.50315200  0.23639400  1
  O  O15  1  0.00292100  0.29927200  0.29657600  1
  O  O16  1  0.70385600  0.98519300  0.28309300  1
  O  O17  1  0.29616400  0.97819900  0.28977300  1
  O  O18  1  0.01445900  0.70723200  0.28237900  1
  O  O19  1  0.12131100  0.89512200  0.35385000  1
  O  O20  1  0.87954100  0.86930600  0.34201100  1
  O  O21  1  0.12913300  0.11153300  0.32949400  1
  O  O22  1  0.89983100  0.08919500  0.32624200  1
  O  O23  1  0.23656800  0.01877900  0.48999800  1
  O  O24  1  0.97214000  0.74080600  0.48727000  1
  O  O25  1  0.00246700  0.21296200  0.49862600  1
  O  O26  1  0.76289800  0.99555800  0.50392500  1
  O  O27  1  0.11063700  0.87502400  0.60536500  1
  O  O28  1  0.87965800  0.87989700  0.64646800  1
  O  O29  1  0.11793800  0.10763600  0.66959300  1
  O  O30  1  0.88646100  0.11439800  0.68073400  1
  O  O31  1  0.00537500  0.30532700  0.69637600  1
  O  O32  1  0.70837500  0.96994500  0.71946800  1
  O  O33  1  0.28150400  0.94669400  0.70853600  1
  O  O34  1  0.00607000  0.72533400  0.73132200  1
  O  O35  1  0.99154300  0.50506100  0.78849300  1
  O  O36  1  0.49615500  0.98116400  0.79174500  1
  O  O37  1  0.65528000  0.86692900  0.90673500  1
  O  O38  1  0.10954400  0.33360300  0.89129700  1
  O  O39  1  0.33711300  0.86657800  0.90801900  1
  O  O40  1  0.12258000  0.66680000  0.90165200  1
  O  O41  1  0.89057800  0.66754700  0.92389000  1
  O  O42  1  0.87966200  0.33000300  0.89376500  1
  O  O43  1  0.31926800  0.09568800  0.88526500  1
  O  O44  1  0.67301500  0.09852300  0.90398300  1
  O  O45  1  0.49764200  0.75690600  0.00476200  1
  O  O46  1  0.22704900  0.50344500  0.99830800  1
  O  O47  1  0.27898200  0.27157500  0.02123300  1
loop_
_geom_bond_atom_site_label_1
_geom_bond_atom_site_label_2
_geom_bond_distance
_geom_bond_site_symmetry_2
Sr1 Tl1 3.773455 1_555
Sr1 Tl3 3.835561 1_555
Sr1 Tl0 3.910689 1_555
Al0 O47 1.736180 1_555
Al0 O46 1.750700 1_554
Al0 O38 1.768752 1_554
Al0 O6 1.783438 1_555
Al1 O2 1.722152 1_554
Al1 O47 1.731912 1_555
Al1 O43 1.795080 1_554
Al1 O12 1.798968 1_555
Al2 O4 1.751498 1_555
Al2 O9 1.760460 1_555
Al2 O3 1.772787 1_555
Al2 O42 1.781790 1_554
Al3 O19 1.733131 1_555
Al3 O24 1.777716 1_455
Al3 O20 1.780110 1_455
Al3 O18 1.814042 1_555
Al4 O26 1.729746 1_555
Al4 O16 1.751580 1_555
Al4 O22 1.762600 1_565
Al4 O20 1.824097 1_555
Al5 O25 1.743308 1_555
Al5 O22 1.758337 1_455
Al5 O15 1.763069 1_555
Al5 O21 1.823953 1_555
Al6 O29 1.744745 1_565
Al6 O23 1.753892 1_565
Al6 O27 1.777889 1_555
Al6 O33 1.796825 1_555
Al7 O34 1.744781 1_655
Al7 O28 1.748126 1_555
Al7 O27 1.776400 1_655
Al7 O24 1.789212 1_555
Al8 O30 1.729116 1_555
Al8 O26 1.750076 1_545
Al8 O32 1.773689 1_545
Al8 O28 1.785799 1_545
Al9 O25 1.746804 1_555
Al9 O30 1.754523 1_455
Al9 O31 1.757542 1_555
Al9 O29 1.786036 1_555
Al10 O36 1.681592 1_555
Al10 O43 1.775936 1_565
Al10 O33 1.788421 1_555
Al10 O39 1.815938 1_555
Al11 O36 1.691322 1_555
Al11 O32 1.749703 1_555
Al11 O44 1.779959 1_565
Al11 O37 1.812609 1_555
Al12 O35 1.695648 1_555
Al12 O34 1.740814 1_655
Al12 O41 1.815743 1_555
Al12 O40 1.817634 1_655
Al13 O35 1.707583 1_555
Al13 O31 1.774630 1_655
Al13 O42 1.774960 1_555
Al13 O38 1.785843 1_655
Tl5 Tl8 3.340866 1_554
Tl6 Tl7 3.279838 1_455
Tl6 Tl8 3.520312 1_565
Tl7 Tl9 3.437362 1_565
O0 Si0 1.643464 1_555
O0 Si1 1.659556 1_555
O0 Tl0 2.964833 1_555
O1 Si2 1.643536 1_555
O1 Si3 1.655367 1_555
O2 Si4 1.606962 1_556
O3 Si3 1.597485 1_555
O4 Si4 1.608215 1_555
O5 Si2 1.632217 1_555
O5 Si5 1.650829 1_555
O6 Si6 1.635823 1_455
O6 Tl5 2.589309 1_555
O7 Si0 1.665845 1_555
O7 Si7 1.671202 1_555
O7 Tl0 2.681633 1_555
O8 Si8 1.625379 1_555
O8 Si1 1.673746 1_555
O8 Tl0 2.970672 1_555
O9 Si6 1.600291 1_555
O10 Si5 1.628177 1_545
O10 Si4 1.678803 1_555
O10 Tl4 3.204536 1_545
O11 Si8 1.665294 1_655
O11 Si3 1.716308 1_555
O11 Sr0 2.849424 1_555
O12 Si7 1.604259 1_545
O12 Tl5 2.688906 1_555
O13 Si7 1.623270 1_545
O13 Si5 1.642642 1_545
O14 Si8 1.637026 1_555
O14 Si6 1.702171 1_455
O14 Sr1 4.455744 1_555
O15 Si6 1.625138 1_455
O16 Si5 1.605604 1_555
O16 Tl4 2.880508 1_555
O17 Si7 1.639797 1_555
O17 Si9 1.665785 1_565
O17 Tl0 2.888695 1_555
O18 Si8 1.628686 1_555
O18 Sr0 2.523338 1_455
O18 Tl0 3.036863 1_555
O19 Si9 1.664671 1_565
O19 Tl0 2.678239 1_555
O20 Sr0 2.349842 1_555
O20 Tl4 2.964385 1_555
O21 Si9 1.634960 1_555
O21 Tl5 2.667584 1_555
O22 Tl4 2.505179 1_545
O23 Si9 1.611687 1_555
O24 Sr0 2.574595 1_555
O25 Tl1 2.520756 1_555
O26 Tl2 2.652981 1_555
O27 Tl3 2.402198 1_555
O27 Tl6 3.238846 1_555
O28 Tl2 2.607321 1_555
O28 Tl7 2.642488 1_555
O29 Tl8 2.411035 1_555
O30 Tl9 2.510023 1_555
O31 Tl1 2.331112 1_555
O32 Tl2 2.397102 1_555
O32 Tl7 2.871080 1_555
O33 Tl3 2.378370 1_555
O33 Tl6 2.941217 1_555
O34 Tl6 2.833586 1_555
O34 Tl7 2.982434 1_455
O37 Si2 1.619288 1_556
O37 Tl7 2.644106 1_555
O38 Tl8 2.373968 1_555
O39 Si0 1.616932 1_556
O39 Tl6 2.729919 1_555
O40 Si1 1.619726 1_556
O40 Tl6 2.613497 1_555
O41 Si3 1.634398 1_556
O41 Tl7 2.706661 1_555
O42 Tl9 2.377506 1_555
O43 Tl8 2.359613 1_555
O44 Si4 1.660012 1_556
O44 Tl9 2.567344 1_555
O45 Si0 1.638023 1_555
O45 Si2 1.660297 1_555
O46 Si1 1.590308 1_556
O47 Tl5 2.676647 1_555
