# generated using pymatgen
data_As24S25
_symmetry_space_group_name_H-M   'P 1'
_cell_length_a   6.87535900
_cell_length_b   9.33520101
_cell_length_c   24.39694188
_cell_angle_alpha   98.66776648
_cell_angle_beta   88.31426300
_cell_angle_gamma   102.36407920
_symmetry_Int_Tables_number   1
_chemical_formula_structural   As24S25
_chemical_formula_sum   'As24 S25'
_cell_volume   1512.07206810
_cell_formula_units_Z   1
loop_
 _symmetry_equiv_pos_site_id
 _symmetry_equiv_pos_as_xyz
  1  'x, y, z'
loop_
 _atom_site_type_symbol
 _atom_site_label
 _atom_site_symmetry_multiplicity
 _atom_site_fract_x
 _atom_site_fract_y
 _atom_site_fract_z
 _atom_site_occupancy
  As  As0  1  0.62554600  0.22594100  0.13933400  1
  As  As1  1  0.49669900  0.52511500  0.17541100  1
  As  As2  1  0.35641800  0.31677500  0.26774000  1
  As  As3  1  0.26215000  0.31664400  0.52191000  1
  As  As4  1  0.19563200  0.67730300  0.48443800  1
  As  As5  1  0.05579700  0.36811300  0.60938300  1
  As  As6  1  0.28195300  0.72020100  0.28647900  1
  As  As7  1  0.96215000  0.30656100  0.81240300  1
  As  As8  1  0.82482700  0.54700600  0.82445000  1
  As  As9  1  0.49212200  0.29364700  0.05361400  1
  As  As10  1  0.95789100  0.68543100  0.68568400  1
  As  As11  1  0.08258100  0.13951200  0.31888000  1
  As  As12  1  0.68316900  0.67565900  0.96398200  1
  As  As13  1  0.17306300  0.47648000  0.22587100  1
  As  As14  1  0.95245700  0.83627600  0.21216800  1
  As  As15  1  0.83762600  0.24614400  0.71069000  1
  As  As16  1  0.93430200  0.77203200  0.31059700  1
  As  As17  1  0.78925600  0.99565400  0.60911400  1
  As  As18  1  0.56702000  0.23663800  0.56014000  1
  As  As19  1  0.65509900  0.81302700  0.67869400  1
  As  As20  1  0.43958400  0.97171000  0.96488900  1
  As  As21  1  0.44818000  0.46708700  0.83842400  1
  As  As22  1  0.44843100  0.74247500  0.81590200  1
  As  As23  1  0.39654300  0.75925000  0.02328100  1
  S  S0  1  0.79786200  0.05570300  0.08274400  1
  S  S1  1  0.87628400  0.61038000  0.02882000  1
  S  S2  1  0.52490000  0.83005900  0.47094800  1
  S  S3  1  0.53127600  0.48190600  0.33783700  1
  S  S4  1  0.14267400  0.77337500  0.81891600  1
  S  S5  1  0.28409900  0.50561500  0.67281000  1
  S  S6  1  0.29321200  0.85232200  0.21316100  1
  S  S7  1  0.32057400  0.11983700  0.10396600  1
  S  S8  1  0.36421700  0.49831200  0.09030400  1
  S  S9  1  0.90127900  0.55999500  0.59723500  1
  S  S10  1  0.02579700  0.93095000  0.54124200  1
  S  S11  1  0.04027900  0.09500400  0.49188500  1
  S  S12  1  0.06381200  0.60346900  0.40729900  1
  S  S13  1  0.48944800  0.44555200  0.92811500  1
  S  S14  1  0.61673000  0.91109300  0.88544400  1
  S  S15  1  0.67906200  0.14054600  0.78000100  1
  S  S16  1  0.73562500  0.50970200  0.73139300  1
  S  S17  1  0.91324500  0.26963900  0.37054000  1
  S  S18  1  0.76606700  0.53239900  0.28256200  1
  S  S19  1  0.91832100  0.07440600  0.23190500  1
  S  S20  1  0.49442200  0.19773100  0.64477000  1
  S  S21  1  0.43969200  0.64654000  0.61930100  1
  S  S22  1  0.50637900  0.95498100  0.54561300  1
  S  S23  1  0.12271800  0.59333400  0.97801000  1
  S  S24  1  0.76256300  0.07877100  0.00236500  1
loop_
_geom_bond_atom_site_label_1
_geom_bond_atom_site_label_2
_geom_bond_distance
_geom_bond_site_symmetry_2
As0 S7 2.254241 1_555
As0 S0 2.425702 1_555
As0 As9 2.524704 1_555
As0 As1 3.103579 1_555
As1 S8 2.249575 1_555
As1 As13 2.499493 1_555
As1 As2 3.190006 1_555
As2 S3 2.297603 1_555
As2 S18 3.086708 1_555
As3 S11 2.324182 1_555
As3 As5 2.569574 1_555
As4 S12 2.068838 1_555
As4 S2 2.445793 1_555
As5 S5 2.277582 1_555
As5 S9 2.327776 1_455
As6 S6 2.311431 1_555
As7 S15 2.290075 1_555
As7 As8 2.590061 1_555
As8 S16 2.324619 1_555
As8 S4 2.711167 1_655
As9 S7 2.286660 1_555
As9 S8 2.320056 1_555
As9 S24 3.122305 1_555
As10 S9 2.296032 1_555
As10 S16 2.376456 1_555
As10 As19 2.631697 1_555
As10 S5 3.059159 1_655
As11 S17 2.115999 1_455
As11 S19 2.367638 1_455
As11 As2 2.643770 1_555
As12 S1 2.323166 1_556
As12 S13 2.330399 1_555
As12 As23 2.595369 1_556
As12 S14 3.234380 1_555
As13 As2 2.488969 1_555
As13 As6 2.499008 1_555
As13 S18 3.193091 1_455
As14 S19 2.263356 1_565
As14 S6 2.315978 1_655
As14 As16 2.554644 1_555
As15 S15 2.225624 1_555
As15 As7 2.589445 1_555
As15 S16 2.672797 1_555
As15 S20 2.811790 1_555
As15 As5 3.090927 1_655
As15 As17 3.112657 1_545
As16 S18 2.299405 1_555
As16 As6 2.572980 1_655
As17 S10 2.390060 1_655
As17 S22 2.451648 1_555
As17 As19 2.597252 1_555
As17 S20 3.076307 1_565
As18 S20 2.175283 1_555
As18 S22 2.543845 1_545
As18 As3 2.610890 1_555
As19 S21 2.273818 1_555
As20 S14 2.320765 1_555
As20 S24 2.378964 1_566
As20 As23 2.574139 1_556
As21 S13 2.258898 1_555
As21 As8 2.564397 1_555
As21 As22 2.708274 1_555
As21 S16 3.248890 1_555
As22 S4 2.179911 1_555
As22 S14 2.285979 1_555
As23 S23 2.349715 1_554
As23 S8 3.099048 1_555
S0 S24 2.031863 1_555
S1 S23 2.089286 1_654
S2 S22 2.025847 1_555
S10 S11 2.070947 1_565
S14 S24 3.121328 1_566
S18 S3 2.093867 1_555
S21 S5 2.100499 1_555
