# generated using pymatgen
data_Te3(PdBr)4
_symmetry_space_group_name_H-M   'P 1'
_cell_length_a   8.57746784
_cell_length_b   8.70043390
_cell_length_c   8.96617955
_cell_angle_alpha   108.25750792
_cell_angle_beta   98.09550052
_cell_angle_gamma   89.08318201
_symmetry_Int_Tables_number   1
_chemical_formula_structural   Te3(PdBr)4
_chemical_formula_sum   'Te6 Pd8 Br8'
_cell_volume   628.82650363
_cell_formula_units_Z   2
loop_
 _symmetry_equiv_pos_site_id
 _symmetry_equiv_pos_as_xyz
  1  'x, y, z'
loop_
 _atom_site_type_symbol
 _atom_site_label
 _atom_site_symmetry_multiplicity
 _atom_site_fract_x
 _atom_site_fract_y
 _atom_site_fract_z
 _atom_site_occupancy
  Te  Te0  1  0.15057414  0.28553488  0.97169995  1
  Te  Te1  1  0.19363853  0.47438162  0.70553160  1
  Te  Te2  1  0.80636147  0.52561838  0.29446840  1
  Te  Te3  1  0.38201302  0.14226142  0.69770284  1
  Te  Te4  1  0.61798698  0.85773858  0.30229716  1
  Te  Te5  1  0.84942586  0.71446512  0.02830005  1
  Pd  Pd0  1  0.21810177  0.58010551  0.00642930  1
  Pd  Pd1  1  0.44057862  0.21831031  0.99648654  1
  Pd  Pd2  1  0.55942138  0.78168969  0.00351346  1
  Pd  Pd3  1  0.78189823  0.41989449  0.99357070  1
  Pd  Pd4  1  0.92348248  0.81418267  0.33643819  1
  Pd  Pd5  1  0.48402822  0.41671858  0.70464611  1
  Pd  Pd6  1  0.07651752  0.18581733  0.66356181  1
  Pd  Pd7  1  0.51597178  0.58328142  0.29535389  1
  Br  Br0  1  0.45767312  0.29805285  0.29811132  1
  Br  Br1  1  0.54232688  0.70194715  0.70188868  1
  Br  Br2  1  0.27468301  0.86687782  0.00975970  1
  Br  Br3  1  0.22371809  0.66745332  0.31072488  1
  Br  Br4  1  0.02290921  0.10395873  0.35689311  1
  Br  Br5  1  0.97709079  0.89604127  0.64310689  1
  Br  Br6  1  0.72531699  0.13312218  0.99024030  1
  Br  Br7  1  0.77628191  0.33254668  0.68927512  1
loop_
_geom_bond_atom_site_label_1
_geom_bond_atom_site_label_2
_geom_bond_distance
_geom_bond_site_symmetry_2
Pd0 Te1 2.541774 1_554
Pd0 Te0 2.549026 1_554
Pd0 Te5 3.364206 1_455
Pd0 Pd7 3.366428 1_555
Pd0 Pd2 3.444203 1_555
Pd1 Te3 2.527425 1_555
Pd1 Te0 2.541327 1_555
Pd1 Pd3 3.444203 1_555
Pd1 Pd7 3.453725 1_556
Pd2 Te4 2.527425 1_555
Pd2 Te5 2.541327 1_555
Pd2 Pd5 3.453725 1_554
Pd3 Te2 2.541774 1_556
Pd3 Te5 2.549026 1_556
Pd3 Te0 3.364206 1_655
Pd3 Pd5 3.366428 1_555
Pd4 Te5 2.609760 1_555
Pd4 Te2 2.614648 1_555
Pd4 Te4 2.630339 1_555
Pd5 Te1 2.533568 1_555
Pd5 Te3 2.535741 1_555
Pd6 Te0 2.609760 1_555
Pd6 Te1 2.614648 1_555
Pd6 Te3 2.630339 1_555
Pd7 Te2 2.533568 1_555
Pd7 Te4 2.535741 1_555
Br0 Pd7 2.547686 1_555
Br0 Pd1 2.555908 1_554
Br0 Pd5 3.438156 1_555
Br1 Pd5 2.547686 1_555
Br1 Pd2 2.555908 1_556
Br1 Pd7 3.438156 1_555
Br2 Pd0 2.539618 1_555
Br2 Pd2 2.544024 1_555
Br2 Pd1 3.435540 1_564
Br3 Pd0 2.586278 1_555
Br3 Pd7 2.610488 1_555
Br3 Pd4 2.862246 1_455
Br4 Pd6 2.589706 1_555
Br4 Pd4 2.617694 1_445
Br5 Pd4 2.589706 1_555
Br5 Pd6 2.617694 1_665
Br6 Pd3 2.539618 1_555
Br6 Pd1 2.544024 1_555
Br6 Pd2 3.435540 1_546
Br7 Pd3 2.586278 1_555
Br7 Pd5 2.610488 1_555
Br7 Pd6 2.862246 1_655
