# generated using pymatgen
data_Nd6MnS10
_symmetry_space_group_name_H-M   'P 1'
_cell_length_a   7.38743900
_cell_length_b   7.42725946
_cell_length_c   30.36387929
_cell_angle_alpha   94.51535868
_cell_angle_beta   94.93284443
_cell_angle_gamma   108.41327420
_symmetry_Int_Tables_number   1
_chemical_formula_structural   Nd6MnS10
_chemical_formula_sum   'Nd24 Mn4 S40'
_cell_volume   1564.95661120
_cell_formula_units_Z   4
loop_
 _symmetry_equiv_pos_site_id
 _symmetry_equiv_pos_as_xyz
  1  'x, y, z'
loop_
 _atom_site_type_symbol
 _atom_site_label
 _atom_site_symmetry_multiplicity
 _atom_site_fract_x
 _atom_site_fract_y
 _atom_site_fract_z
 _atom_site_occupancy
  Nd  Nd0  1  0.82505700  0.19717800  0.02845300  1
  Nd  Nd1  1  0.99496500  0.63395900  0.12721600  1
  Nd  Nd2  1  0.43449100  0.79731900  0.22447700  1
  Nd  Nd3  1  0.46802400  0.60895800  0.07516600  1
  Nd  Nd4  1  0.60272900  0.23611800  0.32652400  1
  Nd  Nd5  1  0.02408500  0.38179200  0.43140500  1
  Nd  Nd6  1  0.06235200  0.19601300  0.27085000  1
  Nd  Nd7  1  0.40595600  0.26560800  0.17266100  1
  Nd  Nd8  1  0.18620500  0.82620600  0.52446400  1
  Nd  Nd9  1  0.63374000  0.00711300  0.62402900  1
  Nd  Nd10  1  0.01252700  0.87899800  0.37345900  1
  Nd  Nd11  1  0.67725200  0.80994800  0.47299500  1
  Nd  Nd12  1  0.42089000  0.66964800  0.34874400  1
  Nd  Nd13  1  0.80282900  0.42974900  0.72443700  1
  Nd  Nd14  1  0.22466600  0.59853000  0.82651800  1
  Nd  Nd15  1  0.59720600  0.45800100  0.56990900  1
  Nd  Nd16  1  0.26866700  0.39619800  0.66980300  1
  Nd  Nd17  1  0.40280500  0.02006800  0.92468800  1
  Nd  Nd18  1  0.18919700  0.07629200  0.77944500  1
  Nd  Nd19  1  0.62887400  0.87579900  0.75407800  1
  Nd  Nd20  1  0.07993900  0.82264700  0.64853900  1
  Nd  Nd21  1  0.80498400  0.68519900  0.97358400  1
  Nd  Nd22  1  0.21304700  0.45532400  0.94952200  1
  Nd  Nd23  1  0.68290600  0.42807200  0.85309400  1
  Mn  Mn0  1  0.82674900  0.07686300  0.14806700  1
  Mn  Mn1  1  0.27755200  0.03231000  0.05088700  1
  Mn  Mn2  1  0.87729600  0.61852200  0.24731300  1
  Mn  Mn3  1  0.47209000  0.23934300  0.45751600  1
  S  S0  1  0.76116100  0.88291600  0.29744000  1
  S  S1  1  0.66446700  0.64243500  0.17718900  1
  S  S2  1  0.27205900  0.91415900  0.29980700  1
  S  S3  1  0.08569500  0.97462600  0.19501600  1
  S  S4  1  0.84211600  0.86920400  0.07870600  1
  S  S5  1  0.37237000  0.49328800  0.49482600  1
  S  S6  1  0.07584900  0.57828200  0.02985700  1
  S  S7  1  0.37215700  0.88847100  0.12481600  1
  S  S8  1  0.26534300  0.26505800  0.37245500  1
  S  S9  1  0.84805000  0.50900500  0.49837200  1
  S  S10  1  0.71096800  0.57015100  0.39560900  1
  S  S11  1  0.17463000  0.29278700  0.09791600  1
  S  S12  1  0.44339300  0.44686400  0.27023900  1
  S  S13  1  0.69040400  0.16774700  0.22290600  1
  S  S14  1  0.09163200  0.48335700  0.20365100  1
  S  S15  1  0.67873100  0.29181900  0.10549200  1
  S  S16  1  0.98060700  0.49705900  0.31968600  1
  S  S17  1  0.84716000  0.83955000  0.57173400  1
  S  S18  1  0.30315700  0.14223400  0.60024200  1
  S  S19  1  0.05887100  0.04898400  0.46690500  1
  S  S20  1  0.89084500  0.39732400  0.63141800  1
  S  S21  1  0.27526200  0.75675100  0.42636800  1
  S  S22  1  0.68155000  0.06298700  0.40101300  1
  S  S23  1  0.56227600  0.08420900  0.52216200  1
  S  S24  1  0.45931800  0.45588200  0.77116400  1
  S  S25  1  0.90213900  0.74180400  0.79903000  1
  S  S26  1  0.65382300  0.66644200  0.67284100  1
  S  S27  1  0.31555300  0.66742500  0.60034300  1
  S  S28  1  0.19308500  0.68658900  0.72854100  1
  S  S29  1  0.08420700  0.05931000  0.98211100  1
  S  S30  1  0.51260300  0.37632900  0.00155700  1
  S  S31  1  0.95911200  0.09913000  0.69924400  1
  S  S32  1  0.26769100  0.26306100  0.87015000  1
  S  S33  1  0.47388300  0.98238300  0.82899100  1
  S  S34  1  0.90033500  0.25970000  0.79828000  1
  S  S35  1  0.46032000  0.10055400  0.70167100  1
  S  S36  1  0.78787000  0.28929700  0.93246700  1
  S  S37  1  0.54190700  0.69705600  0.90147100  1
  S  S38  1  0.48584700  0.86717700  0.00353600  1
  S  S39  1  0.05647300  0.69181600  0.90193100  1
loop_
_geom_bond_atom_site_label_1
_geom_bond_atom_site_label_2
_geom_bond_distance
_geom_bond_site_symmetry_2
Nd0 S15 2.791140 1_555
Nd0 S6 2.846203 1_655
Nd0 S29 2.858062 1_654
Nd0 S38 2.891573 1_545
Nd0 S4 3.004019 1_545
Nd0 S11 3.048088 1_655
Nd0 S36 3.054989 1_554
Nd0 S30 3.090726 1_555
Nd1 S14 2.788530 1_655
Nd1 S4 2.804093 1_555
Nd1 S15 2.840945 1_555
Nd1 S7 2.841153 1_655
Nd1 S3 2.993422 1_655
Nd1 S1 2.997775 1_555
Nd1 S6 3.087805 1_655
Nd1 S11 3.308618 1_655
Nd2 S1 2.768660 1_555
Nd2 S13 2.810008 1_565
Nd2 S14 2.830901 1_555
Nd2 S2 2.870905 1_555
Nd2 S0 3.004280 1_555
Nd2 S12 3.061398 1_555
Nd2 S7 3.179232 1_555
Nd2 S3 3.332662 1_555
Nd3 S7 2.775574 1_555
Nd3 S4 2.815440 1_555
Nd3 S30 2.822625 1_555
Nd3 S11 2.826107 1_555
Nd3 S38 2.995412 1_555
Nd3 S6 3.030905 1_555
Nd3 S1 3.262196 1_555
Nd3 S15 3.351177 1_555
Nd4 S22 2.795112 1_555
Nd4 S12 2.827641 1_555
Nd4 S2 2.829681 1_545
Nd4 S16 2.887419 1_555
Nd4 S10 2.972148 1_555
Nd4 S8 3.015364 1_555
Nd4 S0 3.283929 1_545
Nd4 S13 3.298925 1_555
Nd5 S9 2.765322 1_455
Nd5 S21 2.841402 1_555
Nd5 S19 2.848012 1_555
Nd5 S22 2.886289 1_455
Nd5 S8 2.900455 1_555
Nd5 S5 2.926585 1_555
Nd5 S10 3.215665 1_455
Nd5 S16 3.575874 1_455
Nd6 S3 2.772501 1_545
Nd6 S16 2.836890 1_455
Nd6 S12 2.845454 1_555
Nd6 S0 2.888974 1_445
Nd6 S13 2.934785 1_455
Nd6 S14 3.038873 1_555
Nd6 S2 3.108016 1_545
Nd6 S8 3.240241 1_555
Nd7 S11 2.781192 1_555
Nd7 S13 2.803503 1_555
Nd7 S3 2.829491 1_545
Nd7 S1 2.831409 1_555
Nd7 S15 2.963048 1_555
Nd7 S7 2.978933 1_545
Nd7 S12 3.108559 1_555
Nd7 S14 3.376614 1_555
Nd8 S19 2.798757 1_565
Nd8 S9 2.840131 1_455
Nd8 S23 2.843695 1_565
Nd8 S27 2.893660 1_555
Nd8 S18 3.012763 1_565
Nd8 S17 3.015953 1_455
Nd8 S21 3.143300 1_555
Nd8 S5 3.290309 1_555
Nd9 S17 2.813350 1_545
Nd9 S27 2.843394 1_545
Nd9 S20 2.899005 1_555
Nd9 S35 2.916213 1_555
Nd9 S18 2.975248 1_555
Nd9 S31 3.038570 1_555
Nd9 S26 3.067682 1_545
Nd9 S23 3.219122 1_555
Nd10 S10 2.819467 1_455
Nd10 S21 2.824762 1_555
Nd10 S0 2.843347 1_455
Nd10 S8 2.889864 1_565
Nd10 S19 2.959353 1_565
Nd10 S2 3.042777 1_555
Nd10 S16 3.090409 1_455
Nd10 S22 3.290649 1_465
Nd11 S23 2.816358 1_565
Nd11 S19 2.848404 1_665
Nd11 S5 2.863483 1_555
Nd11 S10 2.911590 1_555
Nd11 S22 2.988508 1_565
Nd11 S9 3.011222 1_555
Nd11 S21 3.070364 1_555
Nd11 S17 3.112415 1_555
Nd12 S21 2.786910 1_555
Nd12 S10 2.793704 1_555
Nd12 S12 2.840523 1_555
Nd12 S2 2.849587 1_555
Nd12 S8 3.028245 1_555
Nd12 S16 3.113724 1_455
Nd12 S0 3.130676 1_555
Nd12 S22 3.154695 1_565
Nd13 S34 2.807875 1_555
Nd13 S26 2.848889 1_555
Nd13 S35 2.895341 1_555
Nd13 S28 2.897004 1_655
Nd13 S20 2.960703 1_555
Nd13 S25 2.975475 1_555
Nd13 S24 3.062263 1_555
Nd13 S31 3.097608 1_555
Nd14 S39 2.837354 1_555
Nd14 S33 2.854798 1_555
Nd14 S34 2.882155 1_455
Nd14 S24 2.886752 1_555
Nd14 S25 2.984226 1_455
Nd14 S37 2.990750 1_555
Nd14 S32 3.001999 1_555
Nd14 S28 3.100965 1_555
Nd15 S5 2.782605 1_555
Nd15 S17 2.845245 1_555
Nd15 S20 2.906922 1_555
Nd15 S18 2.921154 1_555
Nd15 S9 2.945163 1_555
Nd15 S23 2.953874 1_555
Nd15 S27 3.122749 1_555
Nd15 S26 3.308200 1_555
Nd16 S18 2.802302 1_555
Nd16 S31 2.893352 1_455
Nd16 S26 2.907044 1_555
Nd16 S28 2.910478 1_555
Nd16 S20 2.933559 1_455
Nd16 S27 2.996677 1_555
Nd16 S35 3.134562 1_555
Nd16 S24 3.209015 1_555
Nd17 S38 2.830772 1_546
Nd17 S32 2.884463 1_555
Nd17 S36 2.891873 1_555
Nd17 S39 2.908173 1_545
Nd17 S37 2.953697 1_545
Nd17 S33 3.004083 1_545
Nd17 S29 3.118281 1_555
Nd17 S30 3.233160 1_556
Nd18 S33 2.778587 1_545
Nd18 S25 2.853746 1_445
Nd18 S31 2.895424 1_455
Nd18 S32 2.908871 1_555
Nd18 S24 2.938974 1_555
Nd18 S34 2.942801 1_455
Nd18 S28 3.181711 1_545
Nd18 S35 3.205199 1_555
Nd19 S33 2.801551 1_555
Nd19 S25 2.817435 1_555
Nd19 S26 2.862100 1_555
Nd19 S35 2.874000 1_565
Nd19 S34 3.045542 1_565
Nd19 S24 3.076330 1_555
Nd19 S28 3.079199 1_555
Nd19 S31 3.170522 1_565
Nd20 S17 2.811477 1_455
Nd20 S27 2.817880 1_555
Nd20 S28 2.862106 1_555
Nd20 S31 2.877587 1_465
Nd20 S18 2.999212 1_565
Nd20 S20 3.004929 1_455
Nd20 S35 3.129116 1_565
Nd20 S26 3.166529 1_455
Nd21 S37 2.825940 1_555
Nd21 S30 2.853334 1_556
Nd21 S6 2.860700 1_656
Nd21 S29 2.866478 1_665
Nd21 S39 2.973527 1_655
Nd21 S36 3.062840 1_555
Nd21 S38 3.224978 1_556
Nd21 S4 3.325212 1_556
Nd22 S39 2.811942 1_555
Nd22 S32 2.828429 1_555
Nd22 S30 2.846512 1_556
Nd22 S6 2.910420 1_556
Nd22 S36 2.971082 1_455
Nd22 S29 3.063984 1_555
Nd22 S37 3.085589 1_555
Nd22 S38 3.294779 1_556
Nd23 S36 2.836678 1_555
Nd23 S34 2.883572 1_555
Nd23 S37 2.889574 1_555
Nd23 S24 2.923937 1_555
Nd23 S39 3.012617 1_655
Nd23 S32 3.029402 1_555
Nd23 S25 3.069681 1_555
Nd23 S33 3.173770 1_545
Mn0 S4 2.543128 1_545
Mn0 S15 2.569148 1_555
Mn0 S3 2.624363 1_645
Mn0 S13 2.686192 1_555
Mn0 S11 3.154246 1_655
Mn0 S7 3.194126 1_545
Mn0 S14 3.269598 1_655
Mn0 S1 3.289074 1_545
Mn1 S29 2.485009 1_554
Mn1 S11 2.653494 1_555
Mn1 S38 2.689668 1_545
Mn1 S7 2.692257 1_545
Mn1 S30 3.167708 1_555
Mn1 S15 3.207889 1_555
Mn1 S6 3.212888 1_545
Mn1 S4 3.270351 1_445
Mn2 S14 2.535393 1_655
Mn2 S16 2.585367 1_555
Mn2 S1 2.587939 1_555
Mn2 S0 2.779783 1_555
Mn2 S13 3.190276 1_555
Mn2 S12 3.213502 1_555
Mn2 S3 3.224352 1_655
Mn2 S2 3.235882 1_655
Mn3 S5 2.463411 1_555
Mn3 S23 2.498129 1_555
Mn3 S22 2.904590 1_555
Mn3 S8 2.936584 1_555
Mn3 S9 2.960795 1_555
Mn3 S19 2.980833 1_555
Mn3 S10 3.353050 1_555
Mn3 S21 3.434161 1_545
S0 S13 3.334578 1_565
S0 S12 3.335313 1_555
S0 S22 3.489643 1_565
S1 S3 3.273145 1_655
S1 S15 3.294242 1_555
S2 S8 3.294849 1_565
S2 S3 3.476151 1_555
S3 S7 3.293600 1_555
S4 S6 3.484699 1_655
S10 S16 3.294366 1_555
S10 S9 3.307293 1_555
S10 S8 3.332420 1_555
S11 S6 3.272234 1_555
S11 S4 3.294617 1_445
S11 S14 3.585819 1_555
S12 S14 3.246826 1_555
S12 S13 3.473434 1_555
S13 S14 3.278222 1_655
S15 S7 3.266083 1_545
S15 S30 3.462964 1_555
S16 S2 3.301719 1_655
S16 S8 3.479355 1_655
S17 S9 3.184483 1_555
S17 S18 3.399854 1_665
S17 S23 3.506944 1_565
S18 S23 3.257530 1_555
S18 S35 3.269724 1_555
S19 S21 3.300176 1_545
S19 S22 3.322706 1_455
S19 S5 3.371332 1_555
S20 S31 3.262832 1_555
S20 S26 3.291971 1_555
S20 S27 3.404350 1_655
S21 S5 3.152036 1_555
S21 S22 3.336915 1_565
S23 S9 3.368443 1_555
S24 S28 3.243422 1_555
S24 S35 3.248941 1_555
S24 S25 3.283220 1_555
S25 S28 3.252477 1_655
S25 S39 3.322276 1_655
S26 S27 3.187260 1_555
S26 S31 3.280481 1_565
S27 S5 3.469255 1_555
S28 S35 3.294508 1_565
S29 S30 3.265053 1_556
S29 S39 3.454534 1_545
S29 S36 3.490390 1_455
S30 S36 3.210065 1_554
S31 S34 3.261993 1_555
S32 S33 3.186087 1_545
S32 S37 3.234081 1_555
S32 S34 3.325328 1_455
S33 S37 3.286920 1_555
S33 S34 3.427138 1_565
S36 S39 3.277208 1_655
S37 S38 3.362607 1_556
S38 S6 3.316212 1_555
S38 S4 3.327650 1_555
