# generated using pymatgen
data_LiTaBe
_symmetry_space_group_name_H-M   'P 1'
_cell_length_a   4.07964126
_cell_length_b   4.07964126
_cell_length_c   4.07964126
_cell_angle_alpha   60.00000000
_cell_angle_beta   60.00000000
_cell_angle_gamma   60.00000000
_symmetry_Int_Tables_number   1
_chemical_formula_structural   LiTaBe
_chemical_formula_sum   'Li1 Ta1 Be1'
_cell_volume   48.01212505
_cell_formula_units_Z   1
loop_
 _symmetry_equiv_pos_site_id
 _symmetry_equiv_pos_as_xyz
  1  'x, y, z'
loop_
 _atom_site_type_symbol
 _atom_site_label
 _atom_site_symmetry_multiplicity
 _atom_site_fract_x
 _atom_site_fract_y
 _atom_site_fract_z
 _atom_site_occupancy
  Li  Li0  1  0.50000000  0.50000000  0.50000000  1
  Ta  Ta0  1  0.75000000  0.75000000  0.75000000  1
  Be  Be0  1  0.00000000  0.00000000  0.00000000  1
loop_
_geom_bond_atom_site_label_1
_geom_bond_atom_site_label_2
_geom_bond_distance
_geom_bond_site_symmetry_2
Li0 Ta0 2.498260 1_554
Li0 Ta0 2.498260 1_455
Li0 Ta0 2.498260 1_555
Li0 Ta0 2.498260 1_545
Be0 Ta0 2.498260 1_544
Be0 Ta0 2.498260 1_444
Be0 Ta0 2.498260 1_445
Be0 Ta0 2.498260 1_454
Be0 Li0 2.884742 1_554
Be0 Li0 2.884742 1_544
Be0 Li0 2.884742 1_445
Be0 Li0 2.884742 1_545
Be0 Li0 2.884742 1_455
Be0 Li0 2.884742 1_454
