# generated using pymatgen
data_BaSrCuCO4
_symmetry_space_group_name_H-M   'P 1'
_cell_length_a   6.31088300
_cell_length_b   6.38489284
_cell_length_c   6.83159231
_cell_angle_alpha   76.27712105
_cell_angle_beta   86.84698645
_cell_angle_gamma   81.54069391
_symmetry_Int_Tables_number   1
_chemical_formula_structural   BaSrCuCO4
_chemical_formula_sum   'Ba2 Sr2 Cu2 C2 O8'
_cell_volume   264.44922042
_cell_formula_units_Z   2
loop_
 _symmetry_equiv_pos_site_id
 _symmetry_equiv_pos_as_xyz
  1  'x, y, z'
loop_
 _atom_site_type_symbol
 _atom_site_label
 _atom_site_symmetry_multiplicity
 _atom_site_fract_x
 _atom_site_fract_y
 _atom_site_fract_z
 _atom_site_occupancy
  Ba  Ba0  1  0.98347000  0.79385500  0.32604700  1
  Ba  Ba1  1  0.04869900  0.07597900  0.76812100  1
  Sr  Sr0  1  0.52990200  0.53937100  0.82192200  1
  Sr  Sr1  1  0.43911500  0.34856500  0.32645700  1
  Cu  Cu0  1  0.09271100  0.50991700  0.88147900  1
  Cu  Cu1  1  0.50952100  0.90725300  0.09817300  1
  C  C0  1  0.38952200  0.90084400  0.53435600  1
  C  C1  1  0.48117200  0.85928600  0.37667700  1
  O  O0  1  0.16508300  0.46136000  0.60996900  1
  O  O1  1  0.27884800  0.24979900  0.01083300  1
  O  O2  1  0.84935900  0.71699200  0.80786500  1
  O  O3  1  0.75651800  0.72469600  0.01519900  1
  O  O4  1  0.77119100  0.22476300  0.12662000  1
  O  O5  1  0.24553200  0.65965200  0.05033500  1
  O  O6  1  0.84123900  0.25770500  0.32087900  1
  O  O7  1  0.42711900  0.14296200  0.87406900  1
loop_
_geom_bond_atom_site_label_1
_geom_bond_atom_site_label_2
_geom_bond_distance
_geom_bond_site_symmetry_2
Ba0 O5 2.650155 1_655
Ba0 O0 2.675393 1_655
Ba0 O3 2.778770 1_555
Ba0 O4 2.925481 1_565
Ba0 O6 2.958032 1_565
Ba0 C1 3.146590 1_555
Ba0 C0 3.230458 1_655
Ba0 C1 3.276248 1_655
Ba0 O2 3.292570 1_555
Ba0 O6 3.672944 1_555
Ba1 O0 2.635246 1_555
Ba1 O7 2.654738 1_555
Ba1 O2 2.724981 1_445
Ba1 O1 2.775410 1_556
Ba1 C0 2.861625 1_545
Ba1 O5 3.030936 1_546
Ba1 O4 3.179668 1_456
Ba1 O6 3.272134 1_455
Cu0 O2 1.879271 1_455
Cu0 O1 1.939848 1_556
Cu0 O0 1.970573 1_555
Cu0 O5 2.022808 1_556
Cu0 Sr0 2.793957 1_555
Cu1 O7 1.908780 1_564
Cu1 O3 1.947160 1_555
Cu1 O1 2.407979 1_565
Cu1 O5 2.541959 1_555
C0 C1 1.259850 1_555
C0 Sr0 2.722065 1_555
C0 Sr1 2.928318 1_565
C1 Cu1 1.856879 1_555
C1 Sr1 3.033982 1_565
C1 Sr1 3.408382 1_555
O0 Sr1 2.680984 1_555
O0 Sr0 2.948180 1_555
O1 O7 1.494074 1_554
O1 Sr0 2.664394 1_554
O1 Sr1 2.672564 1_555
O2 O3 1.511702 1_556
O2 Sr0 2.441226 1_555
O3 Sr0 2.576004 1_554
O4 O6 1.491702 1_555
O4 Sr1 2.567183 1_555
O4 Sr0 2.855106 1_554
O5 Sr0 2.469903 1_554
O5 Sr1 2.599607 1_555
O6 Sr1 2.518912 1_555
O7 Sr0 2.642646 1_555
