# generated using pymatgen
data_NaPO3
_symmetry_space_group_name_H-M   'P 1'
_cell_length_a   9.96281563
_cell_length_b   9.96281563
_cell_length_c   9.96281563
_cell_angle_alpha   95.79540824
_cell_angle_beta   95.79540824
_cell_angle_gamma   142.94399470
_symmetry_Int_Tables_number   1
_chemical_formula_structural   NaPO3
_chemical_formula_sum   'Na8 P8 O24'
_cell_volume   565.01188875
_cell_formula_units_Z   8
loop_
 _symmetry_equiv_pos_site_id
 _symmetry_equiv_pos_as_xyz
  1  'x, y, z'
loop_
 _atom_site_type_symbol
 _atom_site_label
 _atom_site_symmetry_multiplicity
 _atom_site_fract_x
 _atom_site_fract_y
 _atom_site_fract_z
 _atom_site_occupancy
  Na  Na0  1  0.31874600  0.12928000  0.99511100  1
  Na  Na1  1  0.67636500  0.68125400  0.81053400  1
  Na  Na2  1  0.87072000  0.86583100  0.18946600  1
  Na  Na3  1  0.37928000  0.88416900  0.31053400  1
  Na  Na4  1  0.57363500  0.06874600  0.68946600  1
  Na  Na5  1  0.13416900  0.32363500  0.00488900  1
  Na  Na6  1  0.11583100  0.42636500  0.49511100  1
  Na  Na7  1  0.93125400  0.62072000  0.50488900  1
  P  P0  1  0.41715900  0.38057600  0.31993000  1
  P  P1  1  0.34722900  0.16715900  0.53658300  1
  P  P2  1  0.61942400  0.93935400  0.03658300  1
  P  P3  1  0.63057600  0.81064600  0.46341700  1
  P  P4  1  0.06064600  0.09722900  0.68007000  1
  P  P5  1  0.90277100  0.58284100  0.96341700  1
  P  P6  1  0.18935400  0.65277100  0.81993000  1
  P  P7  1  0.83284100  0.36942400  0.18007000  1
  O  O0  1  0.98040100  0.47861100  0.33048900  1
  O  O1  1  0.89991100  0.73040100  0.00179000  1
  O  O2  1  0.10187800  0.10008800  0.83048900  1
  O  O3  1  0.47441300  0.82519100  0.13456700  1
  O  O4  1  0.58984600  0.22441300  0.14922200  1
  O  O5  1  0.69062400  0.33984600  0.86543300  1
  O  O6  1  0.47291000  0.88088300  0.88737700  1
  O  O7  1  0.35008900  0.01959900  0.49821000  1
  O  O8  1  0.77709000  0.86911700  0.61262300  1
  O  O9  1  0.66015400  0.52558700  0.35077800  1
  O  O10  1  0.52138900  0.85187800  0.50179000  1
  O  O11  1  0.99350600  0.58553300  0.11262300  1
  O  O12  1  0.17480900  0.30937600  0.64922200  1
  O  O13  1  0.55937600  0.41015400  0.63456700  1
  O  O14  1  0.72861100  0.89812200  0.99821000  1
  O  O15  1  0.41446700  0.52709000  0.40797300  1
  O  O16  1  0.11911700  0.00649400  0.59202700  1
  O  O17  1  0.77558700  0.92480900  0.36543300  1
  O  O18  1  0.26959900  0.27138900  0.16951100  1
  O  O19  1  0.14812200  0.64991100  0.66951100  1
  O  O20  1  0.83553300  0.22291000  0.09202700  1
  O  O21  1  0.07519100  0.44062400  0.85077800  1
  O  O22  1  0.13088300  0.74350600  0.90797300  1
  O  O23  1  0.25649400  0.16446700  0.38737700  1
loop_
_geom_bond_atom_site_label_1
_geom_bond_atom_site_label_2
_geom_bond_distance
_geom_bond_site_symmetry_2
Na0 O4 2.309423 1_556
Na0 O2 2.372306 1_555
Na0 O18 2.458597 1_556
Na0 O22 2.558315 1_545
Na0 O1 2.617477 1_446
Na0 O5 2.984181 1_555
Na1 O13 2.309423 1_555
Na1 O14 2.372306 1_555
Na1 O1 2.458591 1_556
Na1 O8 2.558315 1_555
Na1 O2 2.617473 1_665
Na1 O12 2.984181 1_555
Na2 O17 2.309423 1_555
Na2 O1 2.372300 1_555
Na2 O14 2.458597 1_554
Na2 O23 2.558315 1_665
Na2 O18 2.617473 1_665
Na2 O9 2.984181 1_555
Na3 O3 2.309423 1_555
Na3 O7 2.372300 1_565
Na3 O10 2.458597 1_555
Na3 O11 2.558315 1_455
Na3 O0 2.617473 1_455
Na3 O4 2.984181 1_565
Na4 O5 2.309423 1_555
Na4 O10 2.372306 1_545
Na4 O7 2.458591 1_555
Na4 O6 2.558315 1_545
Na4 O19 2.617476 1_545
Na4 O21 2.984181 1_655
Na5 O21 2.309423 1_554
Na5 O18 2.372306 1_555
Na5 O2 2.458597 1_554
Na5 O20 2.558315 1_455
Na5 O14 2.617473 1_444
Na5 O3 2.984181 1_555
Na6 O12 2.309423 1_555
Na6 O0 2.372306 1_455
Na6 O19 2.458590 1_555
Na6 O15 2.558315 1_555
Na6 O10 2.617473 1_555
Na6 O17 2.984181 1_445
Na7 O9 2.309423 1_555
Na7 O19 2.372313 1_655
Na7 O0 2.458597 1_555
Na7 O16 2.558315 1_665
Na7 O7 2.617477 1_665
Na7 O13 2.984181 1_555
O0 P7 1.504570 1_555
O1 P5 1.504578 1_554
O2 P4 1.504570 1_555
O3 P2 1.490021 1_555
O4 P7 1.490021 1_555
O5 P5 1.490021 1_555
O6 P6 1.630354 1_555
O6 P2 1.646051 1_556
O7 P1 1.504578 1_555
O8 P4 1.630354 1_665
O8 P3 1.646051 1_555
O9 P0 1.490021 1_555
O10 P3 1.504570 1_555
O11 P7 1.630354 1_555
O11 P5 1.646051 1_554
O12 P4 1.490021 1_555
O13 P1 1.490021 1_555
O14 P2 1.504570 1_556
O15 P3 1.630354 1_555
O15 P0 1.646051 1_555
O16 P1 1.630354 1_555
O16 P4 1.646051 1_555
O17 P3 1.490021 1_555
O18 P0 1.504570 1_555
O19 P6 1.504567 1_555
O20 P2 1.630354 1_545
O20 P7 1.646051 1_555
O21 P6 1.490021 1_555
O22 P5 1.630354 1_455
O22 P6 1.646051 1_555
O23 P0 1.630354 1_555
O23 P1 1.646051 1_555
