# generated using pymatgen
data_LiTiPO5
_symmetry_space_group_name_H-M   'P 1'
_cell_length_a   6.37336714
_cell_length_b   7.21456543
_cell_length_c   7.33644242
_cell_angle_alpha   90.00000000
_cell_angle_beta   90.00000000
_cell_angle_gamma   90.00000000
_symmetry_Int_Tables_number   1
_chemical_formula_structural   LiTiPO5
_chemical_formula_sum   'Li4 Ti4 P4 O20'
_cell_volume   337.33750358
_cell_formula_units_Z   4
loop_
 _symmetry_equiv_pos_site_id
 _symmetry_equiv_pos_as_xyz
  1  'x, y, z'
loop_
 _atom_site_type_symbol
 _atom_site_label
 _atom_site_symmetry_multiplicity
 _atom_site_fract_x
 _atom_site_fract_y
 _atom_site_fract_z
 _atom_site_occupancy
  Li  Li0  1  0.00000000  -0.00000000  -0.00000000  1
  Li  Li1  1  0.50000000  0.50000000  0.50000000  1
  Li  Li2  1  0.00000000  0.50000000  0.50000000  1
  Li  Li3  1  0.50000000  -0.00000000  -0.00000000  1
  Ti  Ti0  1  0.75000000  0.27870626  0.83591350  1
  Ti  Ti1  1  0.25000000  0.72129374  0.16408650  1
  Ti  Ti2  1  0.25000000  0.77870626  0.66408650  1
  Ti  Ti3  1  0.75000000  0.22129374  0.33591350  1
  P  P0  1  0.25000000  0.37020209  0.87404411  1
  P  P1  1  0.75000000  0.62979791  0.12595589  1
  P  P2  1  0.75000000  0.87020209  0.62595589  1
  P  P3  1  0.25000000  0.12979791  0.37404411  1
  O  O0  1  0.94329678  0.74537725  0.62843247  1
  O  O1  1  0.55670322  0.75462275  0.12843247  1
  O  O2  1  0.05670322  0.24537725  0.87156753  1
  O  O3  1  0.44329678  0.25462275  0.37156753  1
  O  O4  1  0.05670322  0.25462275  0.37156753  1
  O  O5  1  0.55670322  0.74537725  0.62843247  1
  O  O6  1  0.94329678  0.75462275  0.12843247  1
  O  O7  1  0.44329678  0.24537725  0.87156753  1
  O  O8  1  0.75000000  0.15538806  0.10848282  1
  O  O9  1  0.25000000  0.84461194  0.89151718  1
  O  O10  1  0.25000000  0.65538806  0.39151718  1
  O  O11  1  0.75000000  0.34461194  0.60848282  1
  O  O12  1  0.75000000  0.99761010  0.79393204  1
  O  O13  1  0.25000000  0.00238990  0.20606796  1
  O  O14  1  0.25000000  0.49761010  0.70606796  1
  O  O15  1  0.75000000  0.50238990  0.29393204  1
  O  O16  1  0.25000000  0.48453421  0.04943987  1
  O  O17  1  0.75000000  0.51546579  0.95056013  1
  O  O18  1  0.75000000  0.98453421  0.45056013  1
  O  O19  1  0.25000000  0.01546579  0.54943987  1
loop_
_geom_bond_atom_site_label_1
_geom_bond_atom_site_label_2
_geom_bond_distance
_geom_bond_site_symmetry_2
Li0 O6 2.037730 1_445
Li0 O2 2.037730 1_554
Li0 O9 2.104502 1_544
Li0 O8 2.104502 1_455
Li0 O12 2.196495 1_444
Li0 O13 2.196495 1_555
Li1 O3 2.037730 1_555
Li1 O5 2.037730 1_555
Li1 O11 2.104502 1_555
Li1 O10 2.104502 1_555
Li1 O15 2.196495 1_555
Li1 O14 2.196495 1_555
Li2 O4 2.037730 1_555
Li2 O0 2.037730 1_455
Li2 O11 2.104502 1_455
Li2 O10 2.104502 1_555
Li2 O15 2.196495 1_455
Li2 O14 2.196495 1_555
Li3 O1 2.037730 1_545
Li3 O7 2.037730 1_554
Li3 O9 2.104502 1_544
Li3 O8 2.104502 1_555
Li3 O12 2.196495 1_544
Li3 O13 2.196495 1_555
O0 P2 1.526118 1_555
O0 Ti2 1.986760 1_655
O1 P1 1.526118 1_555
O1 Ti1 1.986760 1_555
O2 P0 1.526118 1_555
O2 Ti0 1.986760 1_455
O3 P3 1.526118 1_555
O3 Ti3 1.986760 1_555
O4 P3 1.526118 1_555
O4 Ti3 1.986760 1_455
O5 P2 1.526118 1_555
O5 Ti2 1.986760 1_555
O6 P1 1.526118 1_555
O6 Ti1 1.986760 1_655
O7 P0 1.526118 1_555
O7 Ti0 1.986760 1_555
O8 Ti3 1.734959 1_555
O8 Ti0 2.188675 1_554
O9 Ti2 1.734959 1_555
O9 Ti1 2.188675 1_556
O10 Ti1 1.734959 1_555
O10 Ti2 2.188675 1_555
O11 Ti0 1.734959 1_555
O11 Ti3 2.188675 1_555
O12 P2 1.537399 1_555
O12 Ti0 2.051241 1_565
O13 P3 1.537399 1_555
O13 Ti1 2.051241 1_545
O14 P0 1.537399 1_555
O14 Ti2 2.051241 1_555
O15 P1 1.537399 1_555
O15 Ti3 2.051241 1_555
O16 P0 1.528461 1_554
O16 Ti1 1.903972 1_555
O17 P1 1.528461 1_556
O17 Ti0 1.903972 1_555
O18 P2 1.528461 1_555
O18 Ti3 1.903972 1_565
O19 P3 1.528461 1_555
O19 Ti2 1.903972 1_545
