# generated using pymatgen
data_Ba4LiMo2N7
_symmetry_space_group_name_H-M   'P 1'
_cell_length_a   6.49648149
_cell_length_b   10.41749550
_cell_length_c   17.34341660
_cell_angle_alpha   62.88419101
_cell_angle_beta   90.00000000
_cell_angle_gamma   90.00000000
_symmetry_Int_Tables_number   1
_chemical_formula_structural   Ba4LiMo2N7
_chemical_formula_sum   'Ba16 Li4 Mo8 N28'
_cell_volume   1044.74109637
_cell_formula_units_Z   4
loop_
 _symmetry_equiv_pos_site_id
 _symmetry_equiv_pos_as_xyz
  1  'x, y, z'
loop_
 _atom_site_type_symbol
 _atom_site_label
 _atom_site_symmetry_multiplicity
 _atom_site_fract_x
 _atom_site_fract_y
 _atom_site_fract_z
 _atom_site_occupancy
  Ba  Ba0  1  0.85110991  0.30270110  0.62084889  1
  Ba  Ba1  1  0.85110991  0.69729890  0.87915111  1
  Ba  Ba2  1  0.14889009  0.69729890  0.37915111  1
  Ba  Ba3  1  0.14889009  0.30270110  0.12084889  1
  Ba  Ba4  1  0.28071432  0.25958875  0.48399809  1
  Ba  Ba5  1  0.28071432  0.74041125  0.01600191  1
  Ba  Ba6  1  0.71928568  0.74041125  0.51600191  1
  Ba  Ba7  1  0.71928568  0.25958875  0.98399809  1
  Ba  Ba8  1  0.77238479  0.15309035  0.42624163  1
  Ba  Ba9  1  0.77238479  0.84690965  0.07375837  1
  Ba  Ba10  1  0.22761521  0.84690965  0.57375837  1
  Ba  Ba11  1  0.22761521  0.15309035  0.92624163  1
  Ba  Ba12  1  0.97928793  0.50000000  0.25000000  1
  Ba  Ba13  1  0.02071207  0.50000000  0.75000000  1
  Ba  Ba14  1  0.68896027  -0.00000000  0.25000000  1
  Ba  Ba15  1  0.31103973  -0.00000000  0.75000000  1
  Li  Li0  1  0.53983286  0.36738156  0.76042798  1
  Li  Li1  1  0.46016714  0.36738156  0.26042798  1
  Li  Li2  1  0.46016714  0.63261844  0.23957202  1
  Li  Li3  1  0.53983286  0.63261844  0.73957202  1
  Mo  Mo0  1  0.77381636  0.95138842  0.65461182  1
  Mo  Mo1  1  0.77381636  0.04861158  0.84538818  1
  Mo  Mo2  1  0.22618364  0.04861158  0.34538818  1
  Mo  Mo3  1  0.22618364  0.95138842  0.15461182  1
  Mo  Mo4  1  0.67003228  0.51843612  0.40244172  1
  Mo  Mo5  1  0.67003228  0.48156388  0.09755828  1
  Mo  Mo6  1  0.32996772  0.48156388  0.59755828  1
  Mo  Mo7  1  0.32996772  0.51843612  0.90244172  1
  N  N0  1  0.18485430  0.75562629  0.19318288  1
  N  N1  1  0.18485430  0.24437371  0.30681712  1
  N  N2  1  0.81514570  0.24437371  0.80681712  1
  N  N3  1  0.81514570  0.75562629  0.69318288  1
  N  N4  1  0.53050963  0.43252766  0.34684822  1
  N  N5  1  0.53050963  0.56747234  0.15315178  1
  N  N6  1  0.46949037  0.56747234  0.65315178  1
  N  N7  1  0.46949037  0.43252766  0.84684822  1
  N  N8  1  0.46378506  0.01726206  0.09160989  1
  N  N9  1  0.46378506  0.98273794  0.40839011  1
  N  N10  1  0.53621494  0.98273794  0.90839011  1
  N  N11  1  0.53621494  0.01726206  0.59160989  1
  N  N12  1  0.72077660  0.29333278  0.17284452  1
  N  N13  1  0.27922340  0.29333278  0.67284452  1
  N  N14  1  0.27922340  0.70666722  0.82715548  1
  N  N15  1  0.72077660  0.70666722  0.32715548  1
  N  N16  1  0.91990987  0.57537513  0.06503127  1
  N  N17  1  0.91990987  0.42462487  0.43496873  1
  N  N18  1  0.08009013  0.42462487  0.93496873  1
  N  N19  1  0.08009013  0.57537513  0.56503127  1
  N  N20  1  0.98766836  0.05510742  0.58453285  1
  N  N21  1  0.98766836  0.94489258  0.91546715  1
  N  N22  1  0.01233164  0.94489258  0.41546715  1
  N  N23  1  0.01233164  0.05510742  0.08453285  1
  N  N24  1  0.50000000  0.50000000  0.00000000  1
  N  N25  1  0.50000000  0.50000000  0.50000000  1
  N  N26  1  0.75843413  -0.00000000  0.75000000  1
  N  N27  1  0.24156587  -0.00000000  0.25000000  1
loop_
_geom_bond_atom_site_label_1
_geom_bond_atom_site_label_2
_geom_bond_distance
_geom_bond_site_symmetry_2
Ba0 N17 2.910888 1_555
Ba0 N13 2.911659 1_655
Ba0 N19 2.951639 1_655
Ba0 N26 2.980734 1_555
Ba0 N2 3.006661 1_555
Ba0 N20 3.052454 1_555
Ba0 N25 3.145363 1_555
Ba0 Li0 3.448249 1_555
Ba0 N13 3.813868 1_555
Ba0 N11 3.828670 1_555
Ba1 N16 2.910888 1_556
Ba1 N14 2.911659 1_655
Ba1 N18 2.951639 1_655
Ba1 N26 2.980734 1_565
Ba1 N3 3.006661 1_555
Ba1 N21 3.052454 1_555
Ba1 N24 3.145363 1_556
Ba1 Li3 3.448249 1_555
Ba1 N14 3.813868 1_555
Ba1 N10 3.828670 1_555
Ba2 N19 2.910888 1_555
Ba2 N15 2.911659 1_455
Ba2 N17 2.951639 1_455
Ba2 N27 2.980734 1_565
Ba2 N0 3.006661 1_555
Ba2 N22 3.052454 1_555
Ba2 N25 3.145363 1_555
Ba2 Li2 3.448249 1_555
Ba2 N15 3.813868 1_555
Ba2 N9 3.828670 1_555
Ba3 N18 2.910888 1_554
Ba3 N12 2.911659 1_455
Ba3 N16 2.951639 1_455
Ba3 N27 2.980734 1_555
Ba3 N1 3.006661 1_555
Ba3 N23 3.052454 1_555
Ba3 N24 3.145363 1_555
Ba3 Li1 3.448249 1_555
Ba3 N12 3.813868 1_555
Ba3 N8 3.828670 1_555
Ba4 N4 2.762372 1_555
Ba4 N20 2.795782 1_455
Ba4 N17 2.800071 1_455
Ba4 N11 2.883795 1_555
Ba4 N25 3.002084 1_555
Ba4 N1 3.209331 1_555
Ba4 N13 3.449698 1_555
Ba5 N5 2.762372 1_555
Ba5 N21 2.795782 1_454
Ba5 N16 2.800071 1_455
Ba5 N10 2.883795 1_554
Ba5 N24 3.002084 1_555
Ba5 N0 3.209331 1_555
Ba5 N14 3.449698 1_554
Ba6 N6 2.762372 1_555
Ba6 N22 2.795782 1_655
Ba6 N19 2.800071 1_655
Ba6 N9 2.883795 1_555
Ba6 N25 3.002084 1_555
Ba6 N3 3.209331 1_555
Ba6 N15 3.449698 1_555
Ba7 N7 2.762372 1_555
Ba7 N23 2.795782 1_656
Ba7 N18 2.800071 1_655
Ba7 N8 2.883795 1_556
Ba7 N24 3.002084 1_556
Ba7 N2 3.209331 1_555
Ba7 N12 3.449698 1_556
Ba8 N22 2.745613 1_645
Ba8 N9 2.786639 1_545
Ba8 N20 2.824926 1_555
Ba8 N11 2.980347 1_555
Ba8 N4 3.030725 1_555
Ba8 N17 3.055048 1_555
Ba8 N1 3.252549 1_655
Ba8 Li1 3.393446 1_555
Ba9 N23 2.745613 1_665
Ba9 N8 2.786639 1_565
Ba9 N21 2.824926 1_554
Ba9 N10 2.980347 1_554
Ba9 N5 3.030725 1_555
Ba9 N16 3.055048 1_555
Ba9 N0 3.252549 1_655
Ba9 Li2 3.393446 1_555
Ba10 N20 2.745613 1_465
Ba10 N11 2.786639 1_565
Ba10 N22 2.824926 1_555
Ba10 N9 2.980347 1_555
Ba10 N6 3.030725 1_555
Ba10 N19 3.055048 1_555
Ba10 N3 3.252549 1_455
Ba10 Li3 3.393446 1_555
Ba11 N21 2.745613 1_445
Ba11 N10 2.786639 1_545
Ba11 N23 2.824926 1_556
Ba11 N8 2.980347 1_556
Ba11 N7 3.030725 1_555
Ba11 N18 3.055048 1_555
Ba11 N2 3.252549 1_455
Ba11 Li0 3.393446 1_555
Ba12 N0 2.730177 1_655
Ba12 N1 2.730177 1_655
Ba12 N16 2.959783 1_555
Ba12 N17 2.959783 1_555
Ba12 N5 3.277066 1_555
Ba12 N4 3.277066 1_555
Ba12 N12 3.445648 1_555
Ba12 N15 3.445648 1_555
Ba13 N3 2.730177 1_455
Ba13 N2 2.730177 1_455
Ba13 N18 2.959783 1_555
Ba13 N19 2.959783 1_555
Ba13 N6 3.277066 1_555
Ba13 N7 3.277066 1_555
Ba13 N13 3.445648 1_555
Ba13 N14 3.445648 1_555
Ba14 N15 2.728312 1_545
Ba14 N12 2.728312 1_555
Ba14 N27 2.906489 1_555
Ba14 N8 3.044355 1_555
Ba14 N9 3.044355 1_545
Ba14 N22 3.387709 1_645
Ba14 N23 3.387709 1_655
Ba14 N27 3.589992 1_655
Ba15 N14 2.728312 1_545
Ba15 N13 2.728312 1_555
Ba15 N26 2.906489 1_555
Ba15 N11 3.044355 1_555
Ba15 N10 3.044355 1_545
Ba15 N20 3.387709 1_455
Ba15 N21 3.387709 1_445
Ba15 N26 3.589992 1_455
Li0 N7 1.960389 1_555
Li0 N6 2.116614 1_555
Li0 N2 2.132725 1_555
Li0 N13 2.614759 1_555
Li1 N4 1.960389 1_555
Li1 N5 2.116614 1_555
Li1 N1 2.132725 1_555
Li1 N12 2.614759 1_555
Li2 N5 1.960389 1_555
Li2 N4 2.116614 1_555
Li2 N0 2.132725 1_555
Li2 N15 2.614759 1_555
Li3 N6 1.960389 1_555
Li3 N7 2.116614 1_555
Li3 N3 2.132725 1_555
Li3 N14 2.614759 1_555
Mo0 N11 1.834103 1_565
Mo0 N20 1.837844 1_565
Mo0 N3 1.853358 1_555
Mo0 N26 1.940887 1_565
Mo1 N10 1.834103 1_545
Mo1 N21 1.837844 1_545
Mo1 N2 1.853358 1_555
Mo1 N26 1.940887 1_555
Mo2 N9 1.834103 1_545
Mo2 N22 1.837844 1_545
Mo2 N1 1.853358 1_555
Mo2 N27 1.940887 1_555
Mo3 N8 1.834103 1_565
Mo3 N23 1.837844 1_565
Mo3 N0 1.853358 1_555
Mo3 N27 1.940887 1_565
Mo4 N15 1.823376 1_555
Mo4 N4 1.827226 1_555
Mo4 N17 1.845517 1_555
Mo4 N25 1.955420 1_555
Mo5 N12 1.823376 1_555
Mo5 N5 1.827226 1_555
Mo5 N16 1.845517 1_555
Mo5 N24 1.955420 1_555
Mo6 N13 1.823376 1_555
Mo6 N6 1.827226 1_555
Mo6 N19 1.845517 1_555
Mo6 N25 1.955420 1_555
Mo7 N14 1.823376 1_555
Mo7 N7 1.827226 1_555
Mo7 N18 1.845517 1_555
Mo7 N24 1.955420 1_556
