# generated using pymatgen
data_Hf(TeCl6)2
_symmetry_space_group_name_H-M   'P 1'
_cell_length_a   26.72795387
_cell_length_b   26.72795407
_cell_length_c   26.72795458
_cell_angle_alpha   27.37490181
_cell_angle_beta   27.37490100
_cell_angle_gamma   27.37490107
_symmetry_Int_Tables_number   1
_chemical_formula_structural   Hf(TeCl6)2
_chemical_formula_sum   'Hf6 Te12 Cl72'
_cell_volume   3562.55880290
_cell_formula_units_Z   6
loop_
 _symmetry_equiv_pos_site_id
 _symmetry_equiv_pos_as_xyz
  1  'x, y, z'
loop_
 _atom_site_type_symbol
 _atom_site_label
 _atom_site_symmetry_multiplicity
 _atom_site_fract_x
 _atom_site_fract_y
 _atom_site_fract_z
 _atom_site_occupancy
  Hf  Hf0  1  0.75000000  0.75000000  0.75000000  1
  Hf  Hf1  1  0.35830102  0.35830102  0.35830102  1
  Hf  Hf2  1  0.64169898  0.64169898  0.64169898  1
  Hf  Hf3  1  0.85830102  0.85830102  0.85830102  1
  Hf  Hf4  1  0.14169898  0.14169898  0.14169898  1
  Hf  Hf5  1  0.25000000  0.25000000  0.25000000  1
  Te  Te0  1  0.28606036  0.95962370  0.60821252  1
  Te  Te1  1  0.60821252  0.28606036  0.95962370  1
  Te  Te2  1  0.04037630  0.39178748  0.71393964  1
  Te  Te3  1  0.89178748  0.54037630  0.21393964  1
  Te  Te4  1  0.39178748  0.71393964  0.04037630  1
  Te  Te5  1  0.10821252  0.45962370  0.78606036  1
  Te  Te6  1  0.78606036  0.10821252  0.45962370  1
  Te  Te7  1  0.45962370  0.78606036  0.10821252  1
  Te  Te8  1  0.95962370  0.60821252  0.28606036  1
  Te  Te9  1  0.54037630  0.21393964  0.89178748  1
  Te  Te10  1  0.71393964  0.04037630  0.39178748  1
  Te  Te11  1  0.21393964  0.89178748  0.54037630  1
  Cl  Cl0  1  0.03363558  0.48297566  0.06827383  1
  Cl  Cl1  1  0.77515521  0.47830758  0.71623814  1
  Cl  Cl2  1  0.24446984  0.44429932  0.60871805  1
  Cl  Cl3  1  0.67118381  0.44388251  0.72949556  1
  Cl  Cl4  1  0.25553016  0.89128195  0.05570068  1
  Cl  Cl5  1  0.82881619  0.77050444  0.05611749  1
  Cl  Cl6  1  0.53363558  0.56827383  -0.01702434  1
  Cl  Cl7  1  0.02511306  0.24797810  0.80312189  1
  Cl  Cl8  1  0.94388251  0.17118381  0.22949556  1
  Cl  Cl9  1  0.66531720  -0.04849642  0.68807430  1
  Cl  Cl10  1  -0.03363558  0.51702434  0.93172617  1
  Cl  Cl11  1  0.93172617  -0.03363558  0.51702434  1
  Cl  Cl12  1  0.47488694  0.69687811  0.25202190  1
  Cl  Cl13  1  0.54849642  0.83468280  0.81192570  1
  Cl  Cl14  1  0.02169242  0.72484479  0.78376186  1
  Cl  Cl15  1  0.39128195  0.75553016  0.55570068  1
  Cl  Cl16  1  0.75202190  0.19687811  0.97488694  1
  Cl  Cl17  1  0.47830758  0.71623814  0.77515521  1
  Cl  Cl18  1  0.55611749  0.27050444  0.32881619  1
  Cl  Cl19  1  0.06827383  0.03363558  0.48297566  1
  Cl  Cl20  1  0.33468280  0.04849642  0.31192570  1
  Cl  Cl21  1  0.25202190  0.47488694  0.69687811  1
  Cl  Cl22  1  0.46636442  0.43172617  0.01702434  1
  Cl  Cl23  1  0.28376186  0.22484479  0.52169242  1
  Cl  Cl24  1  0.04849642  0.31192569  0.33468280  1
  Cl  Cl25  1  0.80312189  0.02511306  0.24797810  1
  Cl  Cl26  1  0.72484479  0.78376186  0.02169242  1
  Cl  Cl27  1  0.74446984  0.10871805  0.94429932  1
  Cl  Cl28  1  0.10871805  0.94429932  0.74446984  1
  Cl  Cl29  1  0.69687811  0.25202190  0.47488694  1
  Cl  Cl30  1  -0.04849642  0.68807431  0.66531720  1
  Cl  Cl31  1  0.48297566  0.06827383  0.03363558  1
  Cl  Cl32  1  -0.01702434  0.53363558  0.56827383  1
  Cl  Cl33  1  0.05570068  0.25553016  0.89128195  1
  Cl  Cl34  1  0.31192569  0.33468280  0.04849643  1
  Cl  Cl35  1  0.18807431  0.45150358  0.16531720  1
  Cl  Cl36  1  0.52169242  0.28376186  0.22484479  1
  Cl  Cl37  1  0.01702434  0.46636442  0.43172617  1
  Cl  Cl38  1  0.81192569  0.54849642  0.83468280  1
  Cl  Cl39  1  0.78376186  0.02169242  0.72484479  1
  Cl  Cl40  1  0.97830758  0.27515521  0.21623814  1
  Cl  Cl41  1  0.24797810  0.80312189  0.02511306  1
  Cl  Cl42  1  0.30312189  0.74797810  0.52511306  1
  Cl  Cl43  1  0.19687811  0.97488694  0.75202190  1
  Cl  Cl44  1  0.77050444  0.05611749  0.82881619  1
  Cl  Cl45  1  0.94429932  0.74446984  0.10871805  1
  Cl  Cl46  1  0.05611749  0.82881619  0.77050444  1
  Cl  Cl47  1  0.43172617  0.01702434  0.46636442  1
  Cl  Cl48  1  0.51702434  0.93172617  -0.03363558  1
  Cl  Cl49  1  0.27050444  0.32881619  0.55611749  1
  Cl  Cl50  1  0.32881619  0.55611749  0.27050444  1
  Cl  Cl51  1  0.68807431  0.66531720  -0.04849643  1
  Cl  Cl52  1  0.60871805  0.24446984  0.44429932  1
  Cl  Cl53  1  0.72949556  0.67118381  0.44388251  1
  Cl  Cl54  1  0.56827383  -0.01702434  0.53363558  1
  Cl  Cl55  1  0.97488694  0.75202190  0.19687811  1
  Cl  Cl56  1  0.44429932  0.60871805  0.24446984  1
  Cl  Cl57  1  0.83468280  0.81192569  0.54849643  1
  Cl  Cl58  1  0.75553016  0.55570068  0.39128195  1
  Cl  Cl59  1  0.44388251  0.72949556  0.67118381  1
  Cl  Cl60  1  0.22484479  0.52169242  0.28376186  1
  Cl  Cl61  1  0.27515521  0.21623814  0.97830758  1
  Cl  Cl62  1  0.17118381  0.22949556  0.94388251  1
  Cl  Cl63  1  0.21623814  0.97830758  0.27515521  1
  Cl  Cl64  1  0.52511306  0.30312189  0.74797810  1
  Cl  Cl65  1  0.74797810  0.52511306  0.30312189  1
  Cl  Cl66  1  0.22949556  0.94388251  0.17118381  1
  Cl  Cl67  1  0.89128195  0.05570068  0.25553016  1
  Cl  Cl68  1  0.45150358  0.16531720  0.18807430  1
  Cl  Cl69  1  0.55570068  0.39128195  0.75553016  1
  Cl  Cl70  1  0.16531720  0.18807431  0.45150357  1
  Cl  Cl71  1  0.71623814  0.77515521  0.47830758  1
loop_
_geom_bond_atom_site_label_1
_geom_bond_atom_site_label_2
_geom_bond_distance
_geom_bond_site_symmetry_2
Cl0 Te3 2.438886 1_455
Cl0 Cl65 3.336151 1_455
Cl1 Hf2 2.295024 1_555
Cl1 Cl3 3.302724 1_555
Cl2 Te5 2.457369 1_555
Cl2 Cl21 3.289475 1_555
Cl3 Te1 2.569389 1_555
Cl3 Hf2 2.816241 1_555
Cl3 Cl59 3.306225 1_555
Cl3 Cl53 3.306225 1_555
Cl4 Te4 2.457369 1_555
Cl4 Cl41 3.289474 1_555
Cl5 Te3 2.569389 1_555
Cl5 Hf3 2.816242 1_554
Cl6 Te4 2.438886 1_555
Cl7 Te2 2.325539 1_555
Cl8 Te6 2.569389 1_555
Cl8 Hf4 2.816241 1_655
Cl9 Hf0 2.457725 1_545
Cl9 Te6 2.971406 1_555
Cl10 Te5 2.438886 1_555
Cl10 Cl21 3.336151 1_555
Cl11 Te6 2.438886 1_555
Cl11 Cl29 3.336151 1_555
Cl12 Te7 2.325539 1_555
Cl12 Cl56 3.289474 1_555
Cl12 Cl48 3.336151 1_555
Cl13 Hf0 2.457725 1_555
Cl13 Te4 2.971406 1_556
Cl13 Cl9 3.325269 1_565
Cl14 Hf3 2.295024 1_455
Cl14 Cl46 3.302724 1_555
Cl15 Te11 2.457369 1_555
Cl15 Cl42 3.289474 1_555
Cl16 Te1 2.325539 1_555
Cl16 Cl27 3.289474 1_555
Cl16 Cl22 3.336151 1_556
Cl17 Hf2 2.295024 1_555
Cl17 Cl59 3.302724 1_555
Cl18 Te10 2.569389 1_555
Cl18 Hf1 2.816241 1_555
Cl18 Cl36 3.302724 1_555
Cl18 Cl49 3.306225 1_555
Cl18 Cl50 3.306225 1_555
Cl19 Te11 2.438886 1_545
Cl19 Cl42 3.336151 1_545
Cl20 Hf5 2.457725 1_555
Cl20 Te11 2.971406 1_545
Cl20 Cl68 3.325269 1_555
Cl21 Te5 2.325539 1_555
Cl22 Te1 2.438886 1_554
Cl23 Hf1 2.295024 1_555
Cl23 Cl49 3.302724 1_555
Cl24 Hf5 2.457726 1_555
Cl24 Te3 2.971406 1_455
Cl24 Cl70 3.325270 1_555
Cl25 Te10 2.325539 1_555
Cl25 Cl67 3.289474 1_555
Cl25 Cl54 3.336151 1_555
Cl26 Hf3 2.295024 1_554
Cl26 Cl5 3.302724 1_555
Cl27 Te1 2.457369 1_555
Cl28 Te0 2.457369 1_555
Cl28 Cl43 3.289474 1_555
Cl29 Te6 2.325539 1_555
Cl29 Cl52 3.289474 1_555
Cl30 Hf0 2.457726 1_455
Cl30 Te5 2.971406 1_555
Cl30 Cl57 3.325270 1_455
Cl31 Te9 2.438886 1_554
Cl31 Cl64 3.336151 1_554
Cl32 Te2 2.438886 1_555
Cl32 Cl7 3.336151 1_555
Cl33 Te2 2.457369 1_555
Cl33 Cl7 3.289475 1_555
Cl34 Hf5 2.457725 1_555
Cl34 Te9 2.971406 1_554
Cl34 Cl35 3.325270 1_555
Cl35 Hf5 2.457726 1_555
Cl35 Te8 2.971406 1_455
Cl36 Hf1 2.295024 1_555
Cl37 Te8 2.438886 1_455
Cl37 Cl55 3.336151 1_455
Cl38 Hf0 2.457726 1_555
Cl38 Te2 2.971406 1_655
Cl38 Cl51 3.325270 1_556
Cl39 Hf3 2.295024 1_545
Cl39 Cl44 3.302724 1_555
Cl40 Hf4 2.295024 1_655
Cl40 Cl8 3.302724 1_555
Cl41 Te4 2.325539 1_555
Cl41 Cl6 3.336151 1_555
Cl42 Te11 2.325539 1_555
Cl43 Te0 2.325539 1_555
Cl43 Cl47 3.336151 1_565
Cl44 Te9 2.569389 1_555
Cl44 Hf3 2.816241 1_545
Cl44 Cl46 3.306225 1_645
Cl44 Cl5 3.306225 1_546
Cl45 Te8 2.457369 1_555
Cl45 Cl55 3.289475 1_555
Cl46 Te11 2.569389 1_555
Cl46 Hf3 2.816241 1_455
Cl46 Cl5 3.306225 1_456
Cl47 Te0 2.438886 1_545
Cl48 Te7 2.438886 1_555
Cl49 Te2 2.569389 1_555
Cl49 Hf1 2.816242 1_555
Cl49 Cl50 3.306225 1_555
Cl50 Te4 2.569389 1_555
Cl50 Hf1 2.816241 1_555
Cl50 Cl60 3.302724 1_555
Cl51 Hf0 2.457725 1_554
Cl51 Te7 2.971406 1_555
Cl52 Te6 2.457369 1_555
Cl53 Te8 2.569389 1_555
Cl53 Hf2 2.816242 1_555
Cl53 Cl71 3.302724 1_555
Cl53 Cl59 3.306225 1_555
Cl54 Te10 2.438886 1_555
Cl55 Te8 2.325539 1_555
Cl56 Te7 2.457369 1_555
Cl57 Hf0 2.457725 1_555
Cl57 Te10 2.971406 1_565
Cl58 Te3 2.457369 1_555
Cl58 Cl65 3.289475 1_555
Cl59 Te0 2.569389 1_555
Cl59 Hf2 2.816241 1_555
Cl60 Hf1 2.295024 1_555
Cl61 Hf4 2.295024 1_556
Cl61 Cl62 3.302724 1_555
Cl62 Te5 2.569389 1_555
Cl62 Hf4 2.816242 1_556
Cl62 Cl8 3.306225 1_456
Cl62 Cl66 3.306225 1_546
Cl63 Hf4 2.295024 1_565
Cl63 Cl66 3.302724 1_555
Cl64 Te9 2.325539 1_555
Cl64 Cl69 3.289474 1_555
Cl65 Te3 2.325539 1_555
Cl66 Te7 2.569389 1_555
Cl66 Hf4 2.816241 1_565
Cl66 Cl8 3.306225 1_465
Cl67 Te10 2.457369 1_555
Cl68 Hf5 2.457725 1_555
Cl68 Te1 2.971406 1_554
Cl69 Te9 2.457369 1_555
Cl70 Hf5 2.457725 1_555
Cl70 Te0 2.971406 1_545
Cl71 Hf2 2.295024 1_555
