# generated using pymatgen
data_H4S4N6O
_symmetry_space_group_name_H-M   'P 1'
_cell_length_a   9.61511318
_cell_length_b   9.61511318
_cell_length_c   7.09981812
_cell_angle_alpha   75.06927197
_cell_angle_beta   75.06927197
_cell_angle_gamma   38.50693212
_symmetry_Int_Tables_number   1
_chemical_formula_structural   H4S4N6O
_chemical_formula_sum   'H8 S8 N12 O2'
_cell_volume   393.15506871
_cell_formula_units_Z   2
loop_
 _symmetry_equiv_pos_site_id
 _symmetry_equiv_pos_as_xyz
  1  'x, y, z'
loop_
 _atom_site_type_symbol
 _atom_site_label
 _atom_site_symmetry_multiplicity
 _atom_site_fract_x
 _atom_site_fract_y
 _atom_site_fract_z
 _atom_site_occupancy
  H  H0  1  0.20461300  0.20461300  0.12581100  1
  H  H1  1  0.79538700  0.79538700  0.87418900  1
  H  H2  1  0.99694900  0.26021000  0.26575400  1
  H  H3  1  0.26021000  0.99694900  0.26575400  1
  H  H4  1  0.00305100  0.73979000  0.73424600  1
  H  H5  1  0.73979000  0.00305100  0.73424600  1
  H  H6  1  0.12265200  0.12265200  0.05884000  1
  H  H7  1  0.87734800  0.87734800  0.94116000  1
  S  S0  1  0.35260800  0.35260800  0.12709000  1
  S  S1  1  0.64739200  0.64739200  0.87291000  1
  S  S2  1  0.23628300  0.66263800  0.28444700  1
  S  S3  1  0.66263800  0.23628300  0.28444700  1
  S  S4  1  0.76371700  0.33736200  0.71555300  1
  S  S5  1  0.33736200  0.76371700  0.71555300  1
  S  S6  1  0.32604000  0.32604000  0.52564400  1
  S  S7  1  0.67396000  0.67396000  0.47435600  1
  N  N0  1  0.20650000  0.61041700  0.10491900  1
  N  N1  1  0.61041700  0.20650000  0.10491900  1
  N  N2  1  0.79350000  0.38958300  0.89508100  1
  N  N3  1  0.38958300  0.79350000  0.89508100  1
  N  N4  1  0.18732900  0.58857300  0.49704200  1
  N  N5  1  0.58857300  0.18732900  0.49704200  1
  N  N6  1  0.81267100  0.41142700  0.50295800  1
  N  N7  1  0.41142700  0.81267100  0.50295800  1
  N  N8  1  0.28998700  0.28998700  0.33458800  1
  N  N9  1  0.71001300  0.71001300  0.66541200  1
  N  N10  1  0.14567200  0.14567200  0.17671900  1
  N  N11  1  0.85432800  0.85432800  0.82328100  1
  O  O0  1  0.31321000  0.31321000  0.97504000  1
  O  O1  1  0.68679000  0.68679000  0.02496000  1
loop_
_geom_bond_atom_site_label_1
_geom_bond_atom_site_label_2
_geom_bond_distance
_geom_bond_site_symmetry_2
H0 N10 1.031769 1_555
H0 O0 1.969999 1_554
H1 N11 1.031769 1_555
H1 O1 1.969999 1_556
H2 N10 1.041880 1_655
H2 N6 1.944706 1_555
H3 N10 1.041880 1_565
H3 N7 1.944706 1_555
H4 N11 1.041880 1_455
H4 N4 1.944706 1_555
H5 N11 1.041880 1_545
H5 N5 1.944706 1_555
H6 N10 1.032475 1_555
H7 N11 1.032475 1_555
N0 S0 1.614248 1_555
N0 S2 1.643681 1_555
N1 S0 1.614248 1_555
N1 S3 1.643681 1_555
N2 S1 1.614248 1_555
N2 S4 1.643681 1_555
N3 S1 1.614248 1_555
N3 S5 1.643681 1_555
N4 S2 1.616034 1_555
N4 S6 1.672837 1_555
N5 S3 1.616034 1_555
N5 S6 1.672837 1_555
N6 S4 1.616034 1_555
N6 S7 1.672837 1_555
N7 S5 1.616034 1_555
N7 S7 1.672837 1_555
N8 S0 1.596433 1_555
N8 S6 1.659221 1_555
N9 S1 1.596433 1_555
N9 S7 1.659221 1_555
O0 S0 1.448596 1_556
O1 S1 1.448596 1_554
