# generated using pymatgen
data_Ba4Sm7Si12BN27
_symmetry_space_group_name_H-M   'P 1'
_cell_length_a   12.26139563
_cell_length_b   12.26139563
_cell_length_c   5.45814400
_cell_angle_alpha   90.00000000
_cell_angle_beta   90.00000000
_cell_angle_gamma   119.99999803
_symmetry_Int_Tables_number   1
_chemical_formula_structural   Ba4Sm7Si12BN27
_chemical_formula_sum   'Ba4 Sm7 Si12 B1 N27'
_cell_volume   710.64947810
_cell_formula_units_Z   1
loop_
 _symmetry_equiv_pos_site_id
 _symmetry_equiv_pos_as_xyz
  1  'x, y, z'
loop_
 _atom_site_type_symbol
 _atom_site_label
 _atom_site_symmetry_multiplicity
 _atom_site_fract_x
 _atom_site_fract_y
 _atom_site_fract_z
 _atom_site_occupancy
  Ba  Ba0  1  0.92303900  0.48848300  0.50000000  1
  Ba  Ba1  1  0.51151700  0.43455600  0.50000000  1
  Ba  Ba2  1  0.33333300  0.66666700  0.50000000  1
  Ba  Ba3  1  0.56544400  0.07696100  0.50000000  1
  Sm  Sm0  1  0.78156600  0.02392300  0.00000000  1
  Sm  Sm1  1  0.67875100  0.70627500  0.00000000  1
  Sm  Sm2  1  0.02752400  0.32124900  0.00000000  1
  Sm  Sm3  1  0.00000000  0.00000000  0.50000000  1
  Sm  Sm4  1  0.97607700  0.75764300  0.00000000  1
  Sm  Sm5  1  0.24235700  0.21843400  0.00000000  1
  Sm  Sm6  1  0.29372500  0.97247600  0.00000000  1
  Si  Si0  1  0.49396700  0.79878000  0.00000000  1
  Si  Si1  1  0.75751900  0.26254200  0.00000000  1
  Si  Si2  1  0.67924600  0.87267100  0.50000000  1
  Si  Si3  1  0.87698300  0.18629900  0.50000000  1
  Si  Si4  1  0.81370100  0.69068400  0.50000000  1
  Si  Si5  1  0.73745800  0.49497600  0.00000000  1
  Si  Si6  1  0.19342500  0.32075400  0.50000000  1
  Si  Si7  1  0.30481400  0.50603300  0.00000000  1
  Si  Si8  1  0.12732900  0.80657500  0.50000000  1
  Si  Si9  1  0.30931600  0.12301700  0.50000000  1
  Si  Si10  1  0.20122000  0.69518600  0.00000000  1
  Si  Si11  1  0.50502400  0.24248100  0.00000000  1
  B  B0  1  0.00000000  0.00000000  0.00000000  1
  N  N0  1  0.12961600  0.72478700  0.24509700  1
  N  N1  1  0.12961600  0.72478700  0.75490300  1
  N  N2  1  0.25021800  0.96130100  0.50000000  1
  N  N3  1  0.03869900  0.28891700  0.50000000  1
  N  N4  1  0.18641900  0.54807200  0.00000000  1
  N  N5  1  0.87261600  0.88837600  0.00000000  1
  N  N6  1  0.01576100  0.12738400  0.00000000  1
  N  N7  1  0.36165300  0.81358100  0.00000000  1
  N  N8  1  0.27521300  0.40482900  0.75490300  1
  N  N9  1  0.27521300  0.40482900  0.24509700  1
  N  N10  1  0.20283500  0.18044600  0.50000000  1
  N  N11  1  0.11162400  0.98423900  0.00000000  1
  N  N12  1  0.45192800  0.63834700  0.00000000  1
  N  N13  1  0.59517100  0.87038400  0.75490300  1
  N  N14  1  0.59517100  0.87038400  0.24509700  1
  N  N15  1  0.39796900  0.17871900  0.23971300  1
  N  N16  1  0.39796900  0.17871900  0.76028700  1
  N  N17  1  0.71108300  0.74978200  0.50000000  1
  N  N18  1  0.57636500  0.40300300  0.00000000  1
  N  N19  1  0.78075000  0.60203100  0.23971300  1
  N  N20  1  0.78075000  0.60203100  0.76028700  1
  N  N21  1  0.59699700  0.17336200  0.00000000  1
  N  N22  1  0.97761000  0.79716500  0.50000000  1
  N  N23  1  0.82663800  0.42363500  0.00000000  1
  N  N24  1  0.82128100  0.21925000  0.76028700  1
  N  N25  1  0.82128100  0.21925000  0.23971300  1
  N  N26  1  0.81955400  0.02239000  0.50000000  1
loop_
_geom_bond_atom_site_label_1
_geom_bond_atom_site_label_2
_geom_bond_distance
_geom_bond_site_symmetry_2
Ba0 N23 2.921876 1_555
Ba0 N23 2.921876 1_556
Ba0 N1 3.067164 1_655
Ba0 N0 3.067164 1_655
Ba0 N20 3.070763 1_555
Ba0 N19 3.070763 1_555
Ba0 N24 3.217758 1_555
Ba0 N25 3.217758 1_555
Ba0 N3 3.386579 1_655
Ba1 N18 2.921876 1_556
Ba1 N18 2.921876 1_555
Ba1 N8 3.067164 1_555
Ba1 N9 3.067164 1_555
Ba1 N16 3.070763 1_555
Ba1 N15 3.070763 1_555
Ba1 N20 3.217758 1_555
Ba1 N19 3.217758 1_555
Ba1 N17 3.386580 1_555
Ba2 N7 3.191839 1_555
Ba2 N7 3.191839 1_556
Ba2 N4 3.191841 1_555
Ba2 N4 3.191841 1_556
Ba2 N12 3.191845 1_555
Ba2 N12 3.191845 1_556
Ba2 N1 3.234638 1_555
Ba2 N0 3.234638 1_555
Ba2 N13 3.234646 1_555
Ba2 N14 3.234646 1_555
Ba2 N8 3.234649 1_555
Ba2 N9 3.234649 1_555
Ba2 Si10 3.280336 1_555
Ba2 Si10 3.280336 1_556
Ba2 Si0 3.280344 1_555
Ba2 Si0 3.280344 1_556
Ba2 Si7 3.280349 1_556
Ba2 Si7 3.280349 1_555
Ba3 N21 2.921876 1_556
Ba3 N21 2.921876 1_555
Ba3 N13 3.067164 1_545
Ba3 N14 3.067164 1_545
Ba3 N24 3.070763 1_555
Ba3 N25 3.070763 1_555
Ba3 N16 3.217758 1_555
Ba3 N15 3.217758 1_555
Ba3 N2 3.386579 1_545
B0 N6 1.474807 1_555
B0 N5 1.474811 1_445
B0 N11 1.474819 1_545
B0 Sm3 2.729072 1_555
B0 Sm3 2.729072 1_554
N0 Si8 1.723454 1_555
N0 Si10 1.735181 1_555
N0 Sm4 2.500911 1_455
N0 Sm6 2.991816 1_555
N1 Si8 1.723454 1_555
N1 Si10 1.735181 1_556
N1 Sm4 2.500911 1_456
N1 Sm6 2.991816 1_556
N2 Si8 1.735224 1_555
N2 Si9 1.737814 1_565
N2 Sm6 2.770937 1_555
N2 Sm6 2.770937 1_556
N3 Si6 1.735224 1_555
N3 Si3 1.737814 1_455
N3 Sm2 2.770937 1_555
N3 Sm2 2.770937 1_556
N4 Si10 1.720277 1_555
N4 Si7 1.766742 1_555
N4 Sm2 2.472283 1_555
N5 Sm1 2.308317 1_555
N5 Sm0 2.421576 1_565
N5 Sm4 2.492445 1_555
N6 Sm2 2.308322 1_555
N6 Sm5 2.421565 1_555
N6 Sm0 2.492456 1_455
N7 Si0 1.720289 1_555
N7 Si10 1.766733 1_555
N7 Sm6 2.472283 1_555
N8 Si6 1.723454 1_555
N8 Si7 1.735174 1_556
N8 Sm5 2.500911 1_556
N8 Sm2 2.991816 1_556
N9 Si6 1.723454 1_555
N9 Si7 1.735174 1_555
N9 Sm5 2.500911 1_555
N9 Sm2 2.991816 1_555
N10 Si9 1.766296 1_555
N10 Si6 1.780867 1_555
N10 Sm3 2.361776 1_555
N10 Sm5 2.770181 1_556
N10 Sm5 2.770181 1_555
N11 Sm6 2.308310 1_555
N11 Sm4 2.421566 1_455
N11 Sm5 2.492456 1_565
N12 Si7 1.720282 1_555
N12 Si0 1.766730 1_555
N12 Sm1 2.472283 1_555
N13 Si2 1.723454 1_555
N13 Si0 1.735175 1_556
N13 Sm0 2.500911 1_566
N13 Sm1 2.991816 1_556
N14 Si2 1.723454 1_555
N14 Si0 1.735175 1_555
N14 Sm0 2.500911 1_565
N14 Sm1 2.991816 1_555
N15 Si9 1.709968 1_555
N15 Si11 1.737787 1_555
N15 Sm6 2.551136 1_545
N15 Sm5 2.553171 1_555
N16 Si9 1.709968 1_555
N16 Si11 1.737787 1_556
N16 Sm6 2.551136 1_546
N16 Sm5 2.553171 1_556
N17 Si2 1.735224 1_555
N17 Si4 1.737814 1_555
N17 Sm1 2.770937 1_556
N17 Sm1 2.770937 1_555
N18 Si11 1.708037 1_555
N18 Si5 1.716323 1_555
N19 Si4 1.709968 1_555
N19 Si5 1.737787 1_555
N19 Sm1 2.551136 1_555
N19 Sm4 2.553171 1_555
N20 Si4 1.709968 1_555
N20 Si5 1.737787 1_556
N20 Sm1 2.551136 1_556
N20 Sm4 2.553171 1_556
N21 Si1 1.708036 1_555
N21 Si11 1.716313 1_555
N22 Si4 1.766287 1_555
N22 Si8 1.780879 1_655
N22 Sm3 2.361771 1_665
N22 Sm4 2.770182 1_555
N22 Sm4 2.770182 1_556
N23 Si5 1.708026 1_555
N23 Si1 1.716324 1_555
N24 Si3 1.709968 1_555
N24 Si1 1.737780 1_556
N24 Sm2 2.551136 1_656
N24 Sm0 2.553171 1_556
N25 Si3 1.709968 1_555
N25 Si1 1.737780 1_555
N25 Sm2 2.551136 1_655
N25 Sm0 2.553171 1_555
N26 Si3 1.766285 1_555
N26 Si2 1.780874 1_545
N26 Sm3 2.361783 1_655
N26 Sm0 2.770180 1_555
N26 Sm0 2.770180 1_556
