# generated using pymatgen
data_Sm2Zr8O19
_symmetry_space_group_name_H-M   'P 1'
_cell_length_a   3.57879600
_cell_length_b   3.70355600
_cell_length_c   26.19779400
_cell_angle_alpha   90.00000000
_cell_angle_beta   90.00000000
_cell_angle_gamma   90.00000000
_symmetry_Int_Tables_number   1
_chemical_formula_structural   Sm2Zr8O19
_chemical_formula_sum   'Sm2 Zr8 O19'
_cell_volume   347.23267172
_cell_formula_units_Z   1
loop_
 _symmetry_equiv_pos_site_id
 _symmetry_equiv_pos_as_xyz
  1  'x, y, z'
loop_
 _atom_site_type_symbol
 _atom_site_label
 _atom_site_symmetry_multiplicity
 _atom_site_fract_x
 _atom_site_fract_y
 _atom_site_fract_z
 _atom_site_occupancy
  Sm  Sm0  1  0.50000000  0.00000000  0.79153300  1
  Sm  Sm1  1  0.00000000  0.50000000  0.90988600  1
  Zr  Zr0  1  0.50000000  0.00000000  0.00919600  1
  Zr  Zr1  1  0.00000000  0.50000000  0.10756200  1
  Zr  Zr2  1  0.50000000  0.00000000  0.20579200  1
  Zr  Zr3  1  0.00000000  0.50000000  0.30325900  1
  Zr  Zr4  1  0.50000000  0.00000000  0.40072700  1
  Zr  Zr5  1  0.00000000  0.50000000  0.49831000  1
  Zr  Zr6  1  0.50000000  0.00000000  0.59602800  1
  Zr  Zr7  1  0.00000000  0.50000000  0.69397900  1
  O  O0  1  0.00000000  0.00000000  0.25034600  1
  O  O1  1  0.50000000  0.50000000  0.35231400  1
  O  O2  1  0.00000000  0.00000000  0.44837600  1
  O  O3  1  0.50000000  0.50000000  0.54477100  1
  O  O4  1  0.00000000  0.00000000  0.64648900  1
  O  O5  1  0.50000000  0.50000000  0.73849400  1
  O  O6  1  0.50000000  0.50000000  0.84313300  1
  O  O7  1  0.50000000  0.50000000  0.96557700  1
  O  O8  1  0.00000000  0.00000000  0.05094100  1
  O  O9  1  0.00000000  0.00000000  0.95014100  1
  O  O10  1  0.50000000  0.50000000  0.06122400  1
  O  O11  1  0.50000000  0.50000000  0.15992200  1
  O  O12  1  0.00000000  0.00000000  0.14959800  1
  O  O13  1  0.50000000  0.50000000  0.25450600  1
  O  O14  1  0.00000000  0.00000000  0.34763700  1
  O  O15  1  0.50000000  0.50000000  0.44663400  1
  O  O16  1  0.00000000  0.00000000  0.54547200  1
  O  O17  1  0.50000000  0.50000000  0.63993300  1
  O  O18  1  0.00000000  0.00000000  0.74247400  1
loop_
_geom_bond_atom_site_label_1
_geom_bond_atom_site_label_2
_geom_bond_distance
_geom_bond_site_symmetry_2
O0 Zr2 2.136432 1_555
O0 Zr2 2.136432 1_455
O0 Zr3 2.313146 1_555
O0 Zr3 2.313146 1_545
O0 O14 2.548810 1_555
O0 O13 2.577383 1_455
O0 O13 2.577383 1_445
O0 O13 2.577383 1_545
O0 O13 2.577383 1_555
O0 O12 2.639375 1_555
O1 Zr3 2.203069 1_655
O1 Zr3 2.203069 1_555
O1 Zr4 2.244482 1_565
O1 Zr4 2.244482 1_555
O1 O15 2.470976 1_555
O1 O13 2.562354 1_555
O1 O14 2.577991 1_655
O1 O14 2.577991 1_565
O1 O14 2.577991 1_665
O1 O14 2.577991 1_555
O2 Zr4 2.181787 1_555
O2 Zr4 2.181787 1_455
O2 Zr5 2.267238 1_555
O2 Zr5 2.267238 1_545
O3 Zr5 2.164131 1_555
O3 Zr5 2.164131 1_655
O3 Zr6 2.287411 1_555
O3 Zr6 2.287411 1_565
O4 Zr6 2.224757 1_455
O4 Zr6 2.224757 1_555
O4 Zr7 2.230908 1_545
O4 Zr7 2.230908 1_555
O5 Zr7 2.135873 1_655
O5 Zr7 2.135873 1_555
O5 Sm0 2.315125 1_555
O5 Sm0 2.315125 1_565
O5 O6 2.741311 1_555
O6 Sm0 2.292697 1_555
O6 Sm0 2.292697 1_565
O6 Sm1 2.502035 1_655
O6 Sm1 2.502035 1_555
O7 Zr0 2.175981 1_566
O7 Zr0 2.175981 1_556
O7 Sm1 2.308803 1_555
O7 Sm1 2.308803 1_655
O7 O9 2.606637 1_655
O7 O9 2.606637 1_555
O7 O9 2.606637 1_565
O7 O9 2.606637 1_665
O8 Zr0 2.097133 1_555
O8 Zr0 2.097133 1_455
O8 Zr1 2.372635 1_545
O8 Zr1 2.372635 1_555
O8 O9 2.640738 1_554
O9 Sm1 2.131020 1_555
O9 Sm1 2.131020 1_545
O9 Zr0 2.365480 1_456
O9 Zr0 2.365480 1_556
O10 Zr1 2.162320 1_555
O10 Zr1 2.162320 1_655
O10 Zr0 2.299326 1_555
O10 Zr0 2.299326 1_565
O10 O7 2.505740 1_554
O10 O11 2.585670 1_555
O10 O8 2.589131 1_565
O10 O8 2.589131 1_665
O10 O8 2.589131 1_555
O10 O8 2.589131 1_655
O11 Zr2 2.207521 1_555
O11 Zr2 2.207521 1_565
O11 Zr1 2.254673 1_555
O11 Zr1 2.254673 1_655
O11 O13 2.477892 1_555
O11 O12 2.589243 1_555
O11 O12 2.589243 1_655
O11 O12 2.589243 1_665
O11 O12 2.589243 1_565
O12 Zr1 2.154492 1_555
O12 Zr1 2.154492 1_545
O12 Zr2 2.317153 1_455
O12 Zr2 2.317153 1_555
O12 O8 2.584596 1_555
O13 Zr3 2.198463 1_655
O13 Zr3 2.198463 1_555
O13 Zr2 2.248948 1_555
O13 Zr2 2.248948 1_565
O14 Zr3 2.186489 1_555
O14 Zr3 2.186489 1_545
O14 Zr4 2.266359 1_555
O14 Zr4 2.266359 1_455
O14 O2 2.639140 1_555
O15 Zr4 2.208048 1_565
O15 Zr4 2.208048 1_555
O15 Zr5 2.243816 1_655
O15 Zr5 2.243816 1_555
O15 O3 2.570973 1_555
O15 O2 2.575482 1_565
O15 O2 2.575482 1_655
O15 O2 2.575482 1_665
O15 O2 2.575482 1_555
O16 Zr5 2.226127 1_545
O16 Zr5 2.226127 1_555
O16 Zr6 2.226236 1_455
O16 Zr6 2.226236 1_555
O16 O2 2.543701 1_555
O16 O3 2.575144 1_555
O16 O3 2.575144 1_445
O16 O3 2.575144 1_455
O16 O3 2.575144 1_545
O16 O4 2.646423 1_555
O17 Zr6 2.179925 1_555
O17 Zr6 2.179925 1_565
O17 Zr7 2.281815 1_555
O17 Zr7 2.281815 1_655
O17 O3 2.493034 1_555
O17 O4 2.580799 1_555
O17 O4 2.580799 1_565
O17 O4 2.580799 1_665
O17 O4 2.580799 1_655
O17 O5 2.582081 1_555
O18 Sm0 2.203130 1_455
O18 Sm0 2.203130 1_555
O18 Zr7 2.245697 1_555
O18 Zr7 2.245697 1_545
O18 O4 2.514595 1_555
O18 O5 2.577188 1_455
O18 O5 2.577188 1_445
O18 O5 2.577188 1_545
O18 O5 2.577188 1_555
