# generated using pymatgen
data_Rb2NaCo(CN)6
_symmetry_space_group_name_H-M   'P 1'
_cell_length_a   7.72976600
_cell_length_b   7.34243400
_cell_length_c   12.86335274
_cell_angle_alpha   55.65847983
_cell_angle_beta   90.00000000
_cell_angle_gamma   90.00000000
_symmetry_Int_Tables_number   1
_chemical_formula_structural   Rb2NaCo(CN)6
_chemical_formula_sum   'Rb4 Na2 Co2 C12 N12'
_cell_volume   602.80583838
_cell_formula_units_Z   2
loop_
 _symmetry_equiv_pos_site_id
 _symmetry_equiv_pos_as_xyz
  1  'x, y, z'
loop_
 _atom_site_type_symbol
 _atom_site_label
 _atom_site_symmetry_multiplicity
 _atom_site_fract_x
 _atom_site_fract_y
 _atom_site_fract_z
 _atom_site_occupancy
  Rb  Rb0  1  0.56570800  0.72902300  0.25072500  1
  Rb  Rb1  1  0.06570800  0.27097700  0.24927500  1
  Rb  Rb2  1  0.43429200  0.27097700  0.74927500  1
  Rb  Rb3  1  0.93429200  0.72902300  0.75072500  1
  Na  Na0  1  0.00000000  0.50000000  0.50000000  1
  Na  Na1  1  0.50000000  0.50000000  0.00000000  1
  Co  Co0  1  0.00000000  0.00000000  0.00000000  1
  Co  Co1  1  0.50000000  0.00000000  0.50000000  1
  C  C0  1  0.13420700  0.23896800  0.96880400  1
  C  C1  1  0.36579300  0.23896800  0.46880400  1
  C  C2  1  0.86579300  0.76103200  0.03119600  1
  C  C3  1  0.63420700  0.76103200  0.53119600  1
  C  C4  1  0.29876100  0.82989700  0.53835800  1
  C  C5  1  0.79876100  0.17010300  0.96164200  1
  C  C6  1  0.70123900  0.17010300  0.46164200  1
  C  C7  1  0.20123900  0.82989700  0.03835800  1
  C  C8  1  0.01947400  0.10086300  0.83025800  1
  C  C9  1  0.51947400  0.89913700  0.66974200  1
  C  C10  1  0.98052600  0.89913700  0.16974200  1
  C  C11  1  0.48052600  0.10086300  0.33025800  1
  N  N0  1  0.03402400  0.16551800  0.72371500  1
  N  N1  1  0.53402400  0.83448200  0.77628500  1
  N  N2  1  0.96597600  0.83448200  0.27628500  1
  N  N3  1  0.46597600  0.16551800  0.22371500  1
  N  N4  1  0.17383100  0.72140000  0.56302900  1
  N  N5  1  0.32616900  0.72140000  0.06302900  1
  N  N6  1  0.82616900  0.27860000  0.43697100  1
  N  N7  1  0.67383100  0.27860000  0.93697100  1
  N  N8  1  0.21805000  0.38993800  0.94769400  1
  N  N9  1  0.71805000  0.61006200  0.55230600  1
  N  N10  1  0.78195000  0.61006200  0.05230600  1
  N  N11  1  0.28195000  0.38993800  0.44769400  1
loop_
_geom_bond_atom_site_label_1
_geom_bond_atom_site_label_2
_geom_bond_distance
_geom_bond_site_symmetry_2
C0 N8 1.175963 1_555
C0 Co0 1.876553 1_556
C1 N11 1.175963 1_555
C1 Co1 1.876553 1_555
C2 N10 1.175963 1_555
C2 Co0 1.876553 1_665
C3 N9 1.175963 1_555
C3 Co1 1.876553 1_565
C4 N4 1.175856 1_555
C4 Co1 1.878235 1_565
C5 N7 1.175856 1_555
C5 Co0 1.878235 1_656
C6 N6 1.175856 1_555
C6 Co1 1.878235 1_555
C7 N5 1.175856 1_555
C7 Co0 1.878235 1_565
C8 N0 1.175684 1_555
C8 Co0 1.874613 1_556
C9 N1 1.175684 1_555
C9 Co1 1.874613 1_565
C10 N2 1.175684 1_555
C10 Co0 1.874613 1_665
C11 N3 1.175684 1_555
C11 Co1 1.874613 1_555
N0 Na0 2.531431 1_555
N0 Rb3 3.119342 1_445
N0 Rb2 3.250788 1_555
N1 Na1 2.531431 1_556
N1 Rb2 3.119342 1_565
N1 Rb3 3.250788 1_555
N2 Na0 2.531431 1_655
N2 Rb1 3.119342 1_665
N2 Rb0 3.250788 1_555
N3 Na1 2.531431 1_555
N3 Rb0 3.119342 1_545
N3 Rb1 3.250788 1_555
N4 Na0 2.567575 1_555
N4 Rb3 3.068107 1_455
N4 Rb2 3.433833 1_555
N5 Na1 2.567575 1_555
N5 Rb0 3.068107 1_555
N5 Rb1 3.433833 1_555
N6 Na0 2.567575 1_655
N6 Rb1 3.068107 1_655
N6 Rb0 3.433833 1_555
N7 Na1 2.567575 1_556
N7 Rb2 3.068107 1_555
N7 Rb3 3.433833 1_555
N8 Na1 2.543431 1_556
N8 Rb3 3.211227 1_455
N8 Rb2 3.547752 1_555
N8 Rb1 3.657304 1_556
N9 Na0 2.543431 1_655
N9 Rb2 3.211227 1_555
N9 Rb3 3.547752 1_555
N9 Rb0 3.657304 1_555
N10 Na1 2.543431 1_555
N10 Rb1 3.211227 1_655
N10 Rb0 3.547752 1_555
N10 Rb3 3.657304 1_554
N11 Na0 2.543431 1_555
N11 Rb0 3.211227 1_555
N11 Rb1 3.547752 1_555
N11 Rb2 3.657304 1_555
