# generated using pymatgen
data_MnH2SO5
_symmetry_space_group_name_H-M   'P 1'
_cell_length_a   6.90758483
_cell_length_b   7.94094992
_cell_length_c   8.09242700
_cell_angle_alpha   89.99962481
_cell_angle_beta   89.99997415
_cell_angle_gamma   114.90065912
_symmetry_Int_Tables_number   1
_chemical_formula_structural   MnH2SO5
_chemical_formula_sum   'Mn4 H8 S4 O20'
_cell_volume   402.62757714
_cell_formula_units_Z   4
loop_
 _symmetry_equiv_pos_site_id
 _symmetry_equiv_pos_as_xyz
  1  'x, y, z'
loop_
 _atom_site_type_symbol
 _atom_site_label
 _atom_site_symmetry_multiplicity
 _atom_site_fract_x
 _atom_site_fract_y
 _atom_site_fract_z
 _atom_site_occupancy
  Mn  Mn0  1  0.99987500  0.49983400  0.99988900  1
  Mn  Mn1  1  0.00028000  0.00019900  0.49997500  1
  Mn  Mn2  1  0.50014200  0.50024600  0.49985700  1
  Mn  Mn3  1  0.49985500  0.99964200  0.00029100  1
  H  H0  1  0.65692300  0.78787200  0.28943400  1
  H  H1  1  0.15684500  0.78781500  0.78930400  1
  H  H2  1  0.84312500  0.71220300  0.28944000  1
  H  H3  1  0.34313100  0.71216600  0.78927000  1
  H  H4  1  0.34313200  0.21217000  0.71073800  1
  H  H5  1  0.84303800  0.21209100  0.21063000  1
  H  H6  1  0.15692100  0.28792600  0.71076800  1
  H  H7  1  0.65691200  0.28787000  0.21056400  1
  S  S0  1  0.75007600  0.74994300  0.83623700  1
  S  S1  1  0.24986200  0.75002000  0.33623200  1
  S  S2  1  0.25004900  0.24999400  0.16382400  1
  S  S3  1  0.74989500  0.24996200  0.66381500  1
  O  O0  1  0.75005200  0.75009100  0.36082900  1
  O  O1  1  0.24996000  0.74993200  0.86066300  1
  O  O2  1  0.25005700  0.25008200  0.63935400  1
  O  O3  1  0.74996200  0.24995400  0.13918600  1
  O  O4  1  0.22943300  0.89453700  0.44053200  1
  O  O5  1  0.72953200  0.89447000  0.94050700  1
  O  O6  1  0.27041000  0.60554900  0.44051300  1
  O  O7  1  0.77058100  0.60544700  0.94054000  1
  O  O8  1  0.77015000  0.10548800  0.55944000  1
  O  O9  1  0.27033300  0.10540800  0.05940200  1
  O  O10  1  0.72961800  0.39460300  0.55941400  1
  O  O11  1  0.22986400  0.39449500  0.05945100  1
  O  O12  1  0.55580200  0.66484300  0.72774100  1
  O  O13  1  0.05581500  0.66463600  0.22758200  1
  O  O14  1  0.94423000  0.83534300  0.72768700  1
  O  O15  1  0.44413300  0.83517200  0.22776600  1
  O  O16  1  0.44439100  0.33522700  0.27234300  1
  O  O17  1  0.94438800  0.33504000  0.77215200  1
  O  O18  1  0.05567000  0.16494300  0.27226000  1
  O  O19  1  0.55555800  0.16478800  0.77237000  1
loop_
_geom_bond_atom_site_label_1
_geom_bond_atom_site_label_2
_geom_bond_distance
_geom_bond_site_symmetry_2
Mn0 O7 2.135707 1_555
Mn0 O11 2.138918 1_656
Mn0 O13 2.198021 1_656
Mn0 O17 2.198523 1_555
Mn0 O3 2.302952 1_556
Mn0 O1 2.304076 1_655
Mn1 O4 2.135272 1_545
Mn1 O8 2.139348 1_455
Mn1 O18 2.198203 1_555
Mn1 O14 2.198302 1_445
Mn1 O2 2.302940 1_555
Mn1 O0 2.304199 1_445
Mn2 O6 2.136709 1_555
Mn2 O10 2.137394 1_555
Mn2 O16 2.197805 1_555
Mn2 O12 2.198614 1_555
Mn2 O0 2.301728 1_555
Mn2 O2 2.305436 1_555
Mn3 O5 2.136437 1_554
Mn3 O9 2.137563 1_565
Mn3 O15 2.195266 1_555
Mn3 O19 2.201102 1_564
Mn3 O1 2.303493 1_554
Mn3 O3 2.303769 1_565
H0 O0 1.000084 1_555
H0 O15 1.736531 1_555
H1 O1 1.000304 1_555
H1 O14 1.736316 1_455
H2 O0 1.000245 1_555
H2 O13 1.737542 1_655
H3 O1 1.000232 1_555
H3 O12 1.735543 1_555
H4 O2 1.000340 1_555
H4 O19 1.734463 1_555
H5 O3 1.000403 1_555
H5 O18 1.734728 1_655
H6 O2 1.000497 1_555
H6 O17 1.733362 1_455
H7 O3 1.000199 1_555
H7 O16 1.735308 1_555
O4 S1 1.478409 1_555
O5 S0 1.478671 1_555
O6 S1 1.478362 1_555
O7 S0 1.478500 1_555
O8 S3 1.477970 1_555
O9 S2 1.478997 1_555
O10 S3 1.479228 1_555
O11 S2 1.477923 1_555
O12 S0 1.504912 1_555
O13 S1 1.504707 1_555
O14 S0 1.504757 1_555
O15 S1 1.504780 1_555
O16 S2 1.505429 1_555
O17 S3 1.505213 1_555
O18 S2 1.505104 1_555
O19 S3 1.505534 1_555
