# generated using pymatgen
data_AlPO4
_symmetry_space_group_name_H-M   'P 1'
_cell_length_a   9.07327400
_cell_length_b   18.87555397
_cell_length_c   19.08231049
_cell_angle_alpha   119.58647875
_cell_angle_beta   93.76999259
_cell_angle_gamma   89.87493637
_symmetry_Int_Tables_number   1
_chemical_formula_structural   AlPO4
_chemical_formula_sum   'Al18 P18 O72'
_cell_volume   2834.09585549
_cell_formula_units_Z   18
loop_
 _symmetry_equiv_pos_site_id
 _symmetry_equiv_pos_as_xyz
  1  'x, y, z'
loop_
 _atom_site_type_symbol
 _atom_site_label
 _atom_site_symmetry_multiplicity
 _atom_site_fract_x
 _atom_site_fract_y
 _atom_site_fract_z
 _atom_site_occupancy
  Al  Al0  1  0.41811800  0.82454400  0.49171600  1
  Al  Al1  1  0.91178000  0.66624400  0.49187600  1
  Al  Al2  1  0.56305500  0.41911300  0.41571000  1
  Al  Al3  1  0.59370200  0.49600500  0.65694200  1
  Al  Al4  1  0.06599100  0.32821600  0.50018400  1
  Al  Al5  1  0.43621400  0.32685200  0.48968000  1
  Al  Al6  1  0.93926100  0.59102200  0.98981800  1
  Al  Al7  1  0.58003400  0.59183800  0.99844200  1
  Al  Al8  1  0.07780100  0.49724900  0.81866400  1
  Al  Al9  1  0.45624600  0.50528900  0.82206100  1
  Al  Al10  1  0.55343000  0.33639800  0.84421100  1
  Al  Al11  1  0.93748500  0.33553400  0.83243600  1
  Al  Al12  1  0.06293300  0.43822900  0.02546800  1
  Al  Al13  1  0.42756000  0.43027000  0.02131900  1
  Al  Al14  1  0.56141900  0.15930500  0.49688200  1
  Al  Al15  1  0.93196400  0.16003500  0.49481400  1
  Al  Al16  1  0.05666600  0.16893100  0.67270500  1
  Al  Al17  1  0.43027400  0.17156100  0.66789400  1
  P  P0  1  0.90105300  0.83535800  0.34564800  1
  P  P1  1  0.57564400  0.82787100  0.34429800  1
  P  P2  1  0.06152300  0.82280100  0.49111900  1
  P  P3  1  0.06602200  0.64210000  0.13155800  1
  P  P4  1  0.46957100  0.62087500  0.12773700  1
  P  P5  1  0.93548800  0.50367400  0.18865200  1
  P  P6  1  0.60470600  0.51356600  0.18199700  1
  P  P7  1  0.55697700  0.66788000  0.49449700  1
  P  P8  1  0.47095800  0.50547400  0.31594600  1
  P  P9  1  0.00138300  0.50384100  0.33878800  1
  P  P10  1  0.08205200  0.57584700  0.56965500  1
  P  P11  1  0.42995300  0.57323200  0.56455700  1
  P  P12  1  0.91500000  0.42431300  0.42753000  1
  P  P13  1  0.94660600  0.49628900  0.65460200  1
  P  P14  1  0.09246700  0.99232200  0.42167400  1
  P  P15  1  0.41811600  0.98357200  0.41591200  1
  P  P16  1  0.52102500  0.99525600  0.58521300  1
  P  P17  1  0.96508100  0.00093100  0.56727200  1
  O  O0  1  0.11705200  0.99201700  0.50165700  1
  O  O1  1  0.42943900  0.97885100  0.49374900  1
  O  O2  1  0.49172400  0.90596100  0.34785500  1
  O  O3  1  0.98463600  0.91674700  0.36031500  1
  O  O4  1  0.68110100  0.99876700  0.57783900  1
  O  O5  1  0.74320900  0.86878400  0.37897900  1
  O  O6  1  0.46134000  0.91548300  0.58001300  1
  O  O7  1  0.03585300  0.90574200  0.56448000  1
  O  O8  1  0.90677300  0.76889100  0.26343800  1
  O  O9  1  0.56991800  0.75983600  0.26259100  1
  O  O10  1  0.01075600  0.68409000  0.08282700  1
  O  O11  1  0.55067600  0.67400200  0.10172900  1
  O  O12  1  0.97215400  0.81527100  0.41269600  1
  O  O13  1  0.51630000  0.81521200  0.41094300  1
  O  O14  1  0.22290100  0.80815000  0.47084600  1
  O  O15  1  0.32223500  0.63988900  0.16066000  1
  O  O16  1  0.98497900  0.59003200  0.23357800  1
  O  O17  1  0.57617800  0.59865400  0.18891800  1
  O  O18  1  0.48889700  0.74537900  0.50680500  1
  O  O19  1  0.99595200  0.75434300  0.50224800  1
  O  O20  1  0.76350300  0.49040200  0.15343200  1
  O  O21  1  0.72431700  0.67746500  0.51570500  1
  O  O22  1  0.91390900  0.57903000  0.39602100  1
  O  O23  1  0.51839400  0.59654400  0.40947500  1
  O  O24  1  0.00779900  0.44012800  0.11557700  1
  O  O25  1  0.49781400  0.44684000  0.12265600  1
  O  O26  1  0.92821600  0.46681800  0.24905300  1
  O  O27  1  0.61202100  0.52507300  0.26896500  1
  O  O28  1  0.48282800  0.65204900  0.56054300  1
  O  O29  1  0.01440800  0.64701600  0.56499500  1
  O  O30  1  0.16289300  0.51411300  0.35084000  1
  O  O31  1  0.25442400  0.58768700  0.57495200  1
  O  O32  1  0.93969700  0.42784900  0.34861900  1
  O  O33  1  0.54253000  0.44139800  0.33441000  1
  O  O34  1  0.03592500  0.49553300  0.49047700  1
  O  O35  1  0.44832900  0.50070600  0.48341000  1
  O  O36  1  0.50262300  0.57799400  0.63931200  1
  O  O37  1  0.03979600  0.56963200  0.64326800  1
  O  O38  1  0.75954900  0.45050800  0.45173200  1
  O  O39  1  0.78661000  0.52040900  0.65375100  1
  O  O40  1  0.96652300  0.34614600  0.42012500  1
  O  O41  1  0.50177900  0.33063800  0.40591000  1
  O  O42  1  0.01106400  0.51095400  0.73448100  1
  O  O43  1  0.54435000  0.51189400  0.74758000  1
  O  O44  1  0.48726100  0.59293800  0.91787600  1
  O  O45  1  0.01522500  0.57581400  0.90522600  1
  O  O46  1  0.98109500  0.41721100  0.58219500  1
  O  O47  1  0.54109200  0.40778900  0.57107800  1
  O  O48  1  0.24956400  0.34851200  0.50242000  1
  O  O49  1  0.75944600  0.56941700  0.98975000  1
  O  O50  1  0.26535400  0.49428300  0.80987400  1
  O  O51  1  0.47428800  0.53606800  0.04283900  1
  O  O52  1  0.03660400  0.54816900  0.05406200  1
  O  O53  1  0.00058100  0.40763300  0.80754300  1
  O  O54  1  0.50706400  0.41674000  0.82571900  1
  O  O55  1  0.99980100  0.23894100  0.48646000  1
  O  O56  1  0.47768500  0.23072800  0.47763500  1
  O  O57  1  0.74334600  0.33552700  0.83152900  1
  O  O58  1  0.24498700  0.42388400  0.02510400  1
  O  O59  1  0.74318700  0.14138800  0.47349500  1
  O  O60  1  0.97556700  0.15239800  0.58063000  1
  O  O61  1  0.50692700  0.16644100  0.58484900  1
  O  O62  1  0.52167300  0.36418400  0.94262000  1
  O  O63  1  0.96683300  0.37244000  0.93607300  1
  O  O64  1  0.99045000  0.23929600  0.76282100  1
  O  O65  1  0.49660200  0.23978300  0.76610000  1
  O  O66  1  0.47158800  0.05841300  0.41735100  1
  O  O67  1  0.03780000  0.06622600  0.42055300  1
  O  O68  1  0.24178000  0.18863700  0.66967000  1
  O  O69  1  0.24703200  0.96410100  0.38145200  1
  O  O70  1  0.03391200  0.06120100  0.65120200  1
  O  O71  1  0.44432300  0.06708100  0.64894000  1
loop_
_geom_bond_atom_site_label_1
_geom_bond_atom_site_label_2
_geom_bond_distance
_geom_bond_site_symmetry_2
Al0 O6 1.731837 1_555
Al0 O13 1.764115 1_555
Al0 O18 1.767643 1_555
Al0 O14 1.783157 1_555
Al1 O19 1.745964 1_555
Al1 O22 1.757045 1_555
Al1 O21 1.774747 1_555
Al1 O29 1.809237 1_655
Al2 O41 1.677801 1_555
Al2 O33 1.795691 1_555
Al2 O35 1.824712 1_555
Al2 O38 1.855645 1_555
Al3 O43 1.694387 1_555
Al3 O47 1.700484 1_555
Al3 O39 1.823377 1_555
Al3 O36 1.913922 1_555
Al4 O55 1.678340 1_455
Al4 O48 1.702978 1_555
Al4 O46 1.849649 1_455
Al4 O40 1.894957 1_455
Al5 O48 1.745640 1_555
Al5 O56 1.755854 1_555
Al5 O47 1.766589 1_555
Al5 O41 1.775479 1_555
Al6 O49 1.682331 1_555
Al6 O45 1.688493 1_655
Al6 O10 1.852462 1_656
Al6 O52 1.941890 1_656
Al7 O49 1.679199 1_555
Al7 O44 1.712835 1_555
Al7 O11 1.846530 1_556
Al7 O51 1.933503 1_556
Al8 O45 1.717778 1_555
Al8 O50 1.719001 1_555
Al8 O53 1.740236 1_555
Al8 O42 1.815455 1_555
Al9 O50 1.731477 1_555
Al9 O43 1.731876 1_555
Al9 O44 1.762559 1_555
Al9 O54 1.765984 1_555
Al10 O62 1.726972 1_555
Al10 O65 1.741309 1_555
Al10 O57 1.754680 1_555
Al10 O54 1.762778 1_555
Al11 O64 1.729945 1_555
Al11 O63 1.743094 1_555
Al11 O53 1.755839 1_655
Al11 O57 1.760423 1_555
Al12 O58 1.673198 1_555
Al12 O63 1.711620 1_454
Al12 O24 1.805642 1_555
Al12 O52 1.886271 1_555
Al13 O58 1.670047 1_555
Al13 O62 1.689562 1_554
Al13 O25 1.866829 1_555
Al13 O51 1.872802 1_555
Al14 O61 1.722184 1_555
Al14 O56 1.725509 1_555
Al14 O59 1.725925 1_555
Al14 O66 1.893250 1_555
Al15 O55 1.695262 1_555
Al15 O59 1.729960 1_555
Al15 O60 1.733950 1_555
Al15 O67 1.938903 1_655
Al16 O64 1.720214 1_455
Al16 O68 1.731913 1_555
Al16 O60 1.736505 1_455
Al16 O70 1.874226 1_555
Al17 O61 1.731388 1_555
Al17 O65 1.733319 1_555
Al17 O68 1.739094 1_555
Al17 O71 1.826726 1_555
O0 P14 1.530739 1_555
O0 P17 1.874917 1_465
O1 P15 1.528147 1_555
O1 P16 1.763339 1_555
O2 P15 1.584240 1_555
O2 P1 1.630992 1_555
O3 P0 1.601922 1_555
O3 P14 1.602881 1_655
O4 P16 1.473160 1_555
O5 P0 1.604144 1_555
O5 P1 1.647420 1_555
O6 P16 1.555433 1_555
O7 P2 1.530375 1_555
O7 P17 1.883720 1_465
O8 P0 1.450734 1_555
O9 P1 1.447512 1_555
O10 P3 1.552124 1_555
O11 P4 1.528445 1_555
O12 P2 1.596275 1_655
O12 P0 1.601966 1_555
O13 P1 1.534608 1_555
O14 P2 1.528782 1_555
O15 P4 1.481987 1_555
O16 P5 1.471841 1_555
O17 P6 1.567536 1_555
O17 P4 1.675653 1_555
O18 P7 1.500828 1_555
O19 P2 1.536146 1_655
O20 P6 1.558655 1_555
O20 P5 1.626973 1_555
O21 P7 1.532941 1_555
O22 P9 1.554155 1_655
O23 P7 1.529054 1_555
O23 P8 1.788349 1_555
O24 P5 1.509599 1_455
O25 P6 1.503918 1_555
O26 P9 1.591261 1_655
O26 P5 1.618263 1_555
O27 P6 1.560553 1_555
O27 P8 1.749055 1_555
O28 P11 1.603058 1_555
O28 P7 1.616962 1_555
O29 P10 1.515382 1_555
O30 P9 1.466575 1_555
O31 P10 1.569911 1_555
O31 P11 1.623712 1_555
O32 P12 1.570285 1_555
O32 P9 1.639805 1_655
O33 P8 1.547887 1_555
O34 P10 1.553697 1_555
O34 P12 1.640860 1_455
O35 P11 1.496442 1_555
O36 P11 1.492542 1_555
O37 P10 1.538733 1_555
O37 P13 1.732936 1_455
O38 P12 1.517978 1_555
O39 P13 1.521924 1_555
O40 P12 1.488370 1_555
O42 P13 1.486241 1_455
O46 P13 1.501086 1_555
O51 P4 1.623838 1_555
O52 P3 1.662142 1_555
O66 P15 1.481452 1_545
O67 P14 1.489127 1_545
O69 P14 1.604421 1_555
O69 P15 1.614529 1_555
O70 P17 1.523704 1_455
O71 P16 1.510073 1_545
