# generated using pymatgen
data_Pr2Ga
_symmetry_space_group_name_H-M   'P 1'
_cell_length_a   5.24490353
_cell_length_b   6.78517072
_cell_length_c   9.71247150
_cell_angle_alpha   89.99367542
_cell_angle_beta   89.99999756
_cell_angle_gamma   90.00000333
_symmetry_Int_Tables_number   1
_chemical_formula_structural   Pr2Ga
_chemical_formula_sum   'Pr8 Ga4'
_cell_volume   345.64321726
_cell_formula_units_Z   4
loop_
 _symmetry_equiv_pos_site_id
 _symmetry_equiv_pos_as_xyz
  1  'x, y, z'
loop_
 _atom_site_type_symbol
 _atom_site_label
 _atom_site_symmetry_multiplicity
 _atom_site_fract_x
 _atom_site_fract_y
 _atom_site_fract_z
 _atom_site_occupancy
  Pr  Pr0  1  0.25000002  0.30661469  0.41463111  1
  Pr  Pr1  1  0.75000004  1.00031379  0.30749411  1
  Pr  Pr2  1  0.75000006  0.50031371  0.19268120  1
  Pr  Pr3  1  0.74999998  0.69336906  0.58537337  1
  Pr  Pr4  1  0.75000006  0.19332216  0.91457478  1
  Pr  Pr5  1  0.24999993  0.49968153  0.80738152  1
  Pr  Pr6  1  0.24999995  -0.00032120  0.69246034  1
  Pr  Pr7  1  0.24999997  0.80666597  0.08542858  1
  Ga  Ga0  1  0.75000001  0.22052813  0.59446933  1
  Ga  Ga1  1  0.25000000  0.77949168  0.40523802  1
  Ga  Ga2  1  0.74999997  0.72049640  0.90549179  1
  Ga  Ga3  1  0.25000001  0.27952407  0.09477684  1
loop_
_geom_bond_atom_site_label_1
_geom_bond_atom_site_label_2
_geom_bond_distance
_geom_bond_site_symmetry_2
Pr0 Pr6 3.408437 1_555
Pr0 Pr1 3.504262 1_445
Pr0 Pr1 3.504262 1_545
Pr0 Pr2 3.640182 1_455
Pr0 Pr2 3.640182 1_555
Pr0 Pr5 4.033383 1_555
Pr1 Pr3 3.408858 1_555
Pr1 Pr2 3.571034 1_565
Pr1 Pr2 3.571269 1_555
Pr1 Pr7 3.640894 1_655
Pr1 Pr7 3.640894 1_555
Pr1 Pr4 4.034533 1_564
Pr2 Pr4 3.411163 1_554
Pr2 Pr7 3.504666 1_655
Pr2 Pr7 3.504667 1_555
Pr2 Pr3 4.032823 1_555
Pr3 Pr6 3.504153 1_665
Pr3 Pr6 3.504154 1_565
Pr3 Pr5 3.640489 1_655
Pr3 Pr5 3.640489 1_555
Pr4 Pr5 3.504523 1_655
Pr4 Pr5 3.504524 1_555
Pr4 Pr6 3.641164 1_655
Pr4 Pr6 3.641165 1_555
Pr5 Pr7 3.410677 1_556
Pr5 Pr6 3.571345 1_565
Pr5 Pr6 3.571614 1_555
Pr6 Pr7 4.034992 1_546
Ga0 Pr4 3.114470 1_555
Ga0 Pr1 3.162630 1_545
Ga0 Pr6 3.166740 1_655
Ga0 Pr6 3.166740 1_555
Ga0 Pr0 3.204541 1_655
Ga0 Pr0 3.204541 1_555
Ga0 Pr3 3.209513 1_555
Ga0 Pr3 3.577965 1_545
Ga0 Pr5 3.839527 1_655
Ga0 Pr5 3.839528 1_555
Ga1 Pr7 3.111587 1_555
Ga1 Pr6 3.164658 1_565
Ga1 Pr1 3.165932 1_455
Ga1 Pr1 3.165932 1_555
Ga1 Pr3 3.206159 1_455
Ga1 Pr3 3.206159 1_555
Ga1 Pr0 3.209838 1_555
Ga1 Pr0 3.577793 1_565
Ga1 Pr2 3.837752 1_455
Ga1 Pr2 3.837752 1_555
Ga2 Pr3 3.114605 1_555
Ga2 Pr2 3.164071 1_556
Ga2 Pr5 3.167077 1_655
Ga2 Pr5 3.167077 1_555
Ga2 Pr7 3.205236 1_556
Ga2 Pr7 3.205236 1_656
Ga2 Pr4 3.209426 1_565
Ga2 Pr4 3.578045 1_555
Ga2 Pr6 3.840023 1_665
Ga2 Pr6 3.840023 1_565
Ga3 Pr0 3.112029 1_555
Ga3 Pr5 3.165754 1_554
Ga3 Pr2 3.166395 1_455
Ga3 Pr2 3.166395 1_555
Ga3 Pr4 3.206681 1_454
Ga3 Pr4 3.206682 1_554
Ga3 Pr7 3.209717 1_545
Ga3 Pr7 3.577890 1_555
Ga3 Pr1 3.838473 1_445
Ga3 Pr1 3.838474 1_545
