# generated using pymatgen
data_Na2Sn(H2N)6
_symmetry_space_group_name_H-M   'P 1'
_cell_length_a   8.31919048
_cell_length_b   8.31919048
_cell_length_c   8.31919051
_cell_angle_alpha   37.56226026
_cell_angle_beta   37.56226026
_cell_angle_gamma   37.56226205
_symmetry_Int_Tables_number   1
_chemical_formula_structural   Na2Sn(H2N)6
_chemical_formula_sum   'Na2 Sn1 H12 N6'
_cell_volume   191.92123715
_cell_formula_units_Z   1
loop_
 _symmetry_equiv_pos_site_id
 _symmetry_equiv_pos_as_xyz
  1  'x, y, z'
loop_
 _atom_site_type_symbol
 _atom_site_label
 _atom_site_symmetry_multiplicity
 _atom_site_fract_x
 _atom_site_fract_y
 _atom_site_fract_z
 _atom_site_occupancy
  Na  Na0  1  0.20440600  0.20440600  0.20440600  1
  Na  Na1  1  0.79559400  0.79559400  0.79559400  1
  Sn  Sn0  1  0.00000000  0.00000000  0.00000000  1
  H  H0  1  0.54093500  0.36395200  0.35853000  1
  H  H1  1  0.36395200  0.35853000  0.54093500  1
  H  H2  1  0.35853000  0.54093500  0.36395200  1
  H  H3  1  0.45906500  0.63604800  0.64147000  1
  H  H4  1  0.63604800  0.64147000  0.45906500  1
  H  H5  1  0.64147000  0.45906500  0.63604800  1
  H  H6  1  0.43466400  0.57637100  0.99889300  1
  H  H7  1  0.57637100  0.99889300  0.43466400  1
  H  H8  1  0.99889300  0.43466400  0.57637100  1
  H  H9  1  0.56533600  0.42362900  0.00110700  1
  H  H10  1  0.42362900  0.00110700  0.56533600  1
  H  H11  1  0.00110700  0.56533600  0.42362900  1
  N  N0  1  0.91867800  0.20369900  0.18938100  1
  N  N1  1  0.20369900  0.18938100  0.91867800  1
  N  N2  1  0.18938100  0.91867800  0.20369900  1
  N  N3  1  0.08132200  0.79630100  0.81061900  1
  N  N4  1  0.79630100  0.81061900  0.08132200  1
  N  N5  1  0.81061900  0.08132200  0.79630100  1
loop_
_geom_bond_atom_site_label_1
_geom_bond_atom_site_label_2
_geom_bond_distance
_geom_bond_site_symmetry_2
H0 H1 0.962912 1_555
H0 H2 0.962912 1_555
H0 N0 1.718844 1_555
H0 Na1 2.997545 1_554
H0 Na1 3.023386 1_545
H1 H2 0.962912 1_555
H1 N1 1.718844 1_555
H1 Na1 2.997545 1_545
H1 Na1 3.023386 1_455
H2 N2 1.718844 1_555
H2 Na1 2.997545 1_455
H2 Na1 3.023386 1_554
H3 H4 0.962912 1_555
H3 H5 0.962912 1_555
H3 N3 1.718844 1_555
H3 Na0 2.997545 1_556
H3 Na0 3.023386 1_565
H4 H5 0.962912 1_555
H4 N4 1.718844 1_555
H4 Na0 2.997545 1_565
H4 Na0 3.023386 1_655
H5 N5 1.718844 1_555
H5 Na0 2.997545 1_655
H5 Na0 3.023386 1_556
H6 H9 0.775512 1_556
H6 Sn0 2.300218 1_566
H6 Na1 3.308011 1_555
H7 Sn0 2.300218 1_665
H7 Na1 3.308011 1_555
H8 Sn0 2.300218 1_656
H8 Na1 3.308011 1_555
H9 Sn0 2.300218 1_655
H9 Na0 3.308011 1_555
H10 H7 0.775512 1_545
H10 Sn0 2.300218 1_556
H10 Na0 3.308011 1_555
H11 H8 0.775512 1_455
H11 Sn0 2.300218 1_565
H11 Na0 3.308011 1_555
N0 N1 1.489930 1_654
N0 N2 1.489930 1_645
N0 Na0 2.481992 1_655
N0 Sn0 2.556743 1_655
N0 Na1 2.788826 1_554
N0 Na1 2.861539 1_545
N1 N2 1.489930 1_546
N1 Na0 2.481992 1_556
N1 Sn0 2.556743 1_556
N1 Na1 2.788826 1_545
N1 Na1 2.861539 1_455
N2 Na0 2.481992 1_565
N2 Sn0 2.556743 1_565
N2 Na1 2.788826 1_455
N2 Na1 2.861539 1_554
N3 N4 1.489930 1_456
N3 N5 1.489930 1_465
N3 Na1 2.481992 1_455
N3 Sn0 2.556743 1_566
N3 Na0 2.788826 1_556
N3 Na0 2.861539 1_565
N4 N5 1.489930 1_564
N4 Na1 2.481992 1_554
N4 Sn0 2.556743 1_665
N4 Na0 2.788826 1_565
N4 Na0 2.861539 1_655
N5 Na1 2.481992 1_545
N5 Sn0 2.556743 1_656
N5 Na0 2.788826 1_655
N5 Na0 2.861539 1_556
