# generated using pymatgen
data_SrBPO5
_symmetry_space_group_name_H-M   'P 1'
_cell_length_a   6.94216950
_cell_length_b   6.94216950
_cell_length_c   6.89612700
_cell_angle_alpha   90.00000000
_cell_angle_beta   90.00000000
_cell_angle_gamma   119.99999523
_symmetry_Int_Tables_number   1
_chemical_formula_structural   SrBPO5
_chemical_formula_sum   'Sr3 B3 P3 O15'
_cell_volume   287.82355292
_cell_formula_units_Z   3
loop_
 _symmetry_equiv_pos_site_id
 _symmetry_equiv_pos_as_xyz
  1  'x, y, z'
loop_
 _atom_site_type_symbol
 _atom_site_label
 _atom_site_symmetry_multiplicity
 _atom_site_fract_x
 _atom_site_fract_y
 _atom_site_fract_z
 _atom_site_occupancy
  Sr  Sr0  1  0.00000000  0.60672900  0.16666700  1
  Sr  Sr1  1  0.60672900  0.00000000  0.83333300  1
  Sr  Sr2  1  0.39327100  0.39327100  0.50000000  1
  B  B0  1  0.90170900  0.90170900  0.50000000  1
  B  B1  1  0.00000000  0.09829100  0.16666700  1
  B  B2  1  0.09829100  0.00000000  0.83333300  1
  P  P0  1  0.00000000  0.59624800  0.66666700  1
  P  P1  1  0.59624800  0.00000000  0.33333300  1
  P  P2  1  0.40375200  0.40375200  0.00000000  1
  O  O0  1  0.00000000  0.04326800  0.66666700  1
  O  O1  1  0.95673200  0.95673200  0.00000000  1
  O  O2  1  0.04326800  0.00000000  0.33333300  1
  O  O3  1  0.44732900  0.58601400  0.85609400  1
  O  O4  1  0.41398600  0.86131500  0.18942700  1
  O  O5  1  0.13868500  0.55267100  0.52276000  1
  O  O6  1  0.33609300  0.18731000  0.87098800  1
  O  O7  1  0.81269000  0.14878300  0.20432200  1
  O  O8  1  0.85121700  0.66390700  0.53765500  1
  O  O9  1  0.14878300  0.81269000  0.79567800  1
  O  O10  1  0.66390700  0.85121700  0.46234500  1
  O  O11  1  0.18731000  0.33609300  0.12901200  1
  O  O12  1  0.58601400  0.44732900  0.14390600  1
  O  O13  1  0.55267100  0.13868500  0.47724000  1
  O  O14  1  0.86131500  0.41398600  0.81057300  1
loop_
_geom_bond_atom_site_label_1
_geom_bond_atom_site_label_2
_geom_bond_distance
_geom_bond_site_symmetry_2
B0 O2 1.442848 1_665
B0 O0 1.442848 1_665
B0 O10 1.528717 1_555
B0 O8 1.528717 1_555
B1 O2 1.442843 1_555
B1 O1 1.442848 1_445
B1 O7 1.528717 1_455
B1 O11 1.528717 1_555
B2 O0 1.442843 1_555
B2 O1 1.442848 1_446
B2 O9 1.528717 1_545
B2 O6 1.528717 1_555
O0 Sr1 2.836354 1_455
O0 Sr2 2.836357 1_555
O1 Sr0 2.836357 1_655
O1 Sr1 2.836357 1_564
O2 Sr0 2.836354 1_545
O2 Sr2 2.836357 1_555
O3 P2 1.514779 1_556
O3 Sr1 2.515659 1_565
O3 Sr2 2.731189 1_555
O4 P1 1.514779 1_565
O4 Sr0 2.515659 1_555
O4 Sr1 2.731189 1_564
O5 P0 1.514784 1_555
O5 Sr2 2.515658 1_555
O5 Sr0 2.731183 1_555
O6 P2 1.601291 1_556
O6 Sr1 2.780517 1_555
O6 Sr2 2.860017 1_555
O7 P1 1.601287 1_555
O7 Sr0 2.780518 1_655
O7 Sr1 2.860023 1_554
O8 P0 1.601291 1_655
O8 Sr2 2.780518 1_555
O8 Sr0 2.860017 1_655
O9 P0 1.601287 1_555
O9 Sr1 2.780518 1_565
O9 Sr0 2.860023 1_556
O10 P1 1.601291 1_565
O10 Sr2 2.780518 1_555
O10 Sr1 2.860017 1_565
O11 P2 1.601291 1_555
O11 Sr0 2.780517 1_555
O11 Sr2 2.860017 1_555
O12 P2 1.514779 1_555
O12 Sr0 2.515659 1_655
O12 Sr2 2.731189 1_555
O13 P1 1.514784 1_555
O13 Sr2 2.515658 1_555
O13 Sr1 2.731183 1_555
O14 P0 1.514779 1_655
O14 Sr1 2.515659 1_555
O14 Sr0 2.731189 1_656
