# generated using pymatgen
data_Gd2Be2GeO7
_symmetry_space_group_name_H-M   'P 1'
_cell_length_a   7.51713700
_cell_length_b   7.51713700
_cell_length_c   4.86829400
_cell_angle_alpha   90.00000000
_cell_angle_beta   90.00000000
_cell_angle_gamma   90.00000000
_symmetry_Int_Tables_number   1
_chemical_formula_structural   Gd2Be2GeO7
_chemical_formula_sum   'Gd4 Be4 Ge2 O14'
_cell_volume   275.09438652
_cell_formula_units_Z   2
loop_
 _symmetry_equiv_pos_site_id
 _symmetry_equiv_pos_as_xyz
  1  'x, y, z'
loop_
 _atom_site_type_symbol
 _atom_site_label
 _atom_site_symmetry_multiplicity
 _atom_site_fract_x
 _atom_site_fract_y
 _atom_site_fract_z
 _atom_site_occupancy
  Gd  Gd0  1  0.34088100  0.15911900  0.99549000  1
  Gd  Gd1  1  0.65911900  0.84088100  0.99549000  1
  Gd  Gd2  1  0.84088100  0.34088100  0.00451000  1
  Gd  Gd3  1  0.15911900  0.65911900  0.00451000  1
  Be  Be0  1  0.86487400  0.63512600  0.54652000  1
  Be  Be1  1  0.36487400  0.86487400  0.45348000  1
  Be  Be2  1  0.13512600  0.36487400  0.54652000  1
  Be  Be3  1  0.63512600  0.13512600  0.45348000  1
  Ge  Ge0  1  0.50000000  0.50000000  0.50000000  1
  Ge  Ge1  1  0.00000000  0.00000000  0.50000000  1
  O  O0  1  0.14149800  0.35850200  0.21984300  1
  O  O1  1  0.17185800  0.91976000  0.28802800  1
  O  O2  1  0.91976000  0.82814200  0.71197200  1
  O  O3  1  0.35850200  0.85850200  0.78015700  1
  O  O4  1  0.32814200  0.41976000  0.71197200  1
  O  O5  1  0.82814200  0.08024000  0.28802800  1
  O  O6  1  0.00000000  0.50000000  0.68208900  1
  O  O7  1  0.85850200  0.64149800  0.21984300  1
  O  O8  1  0.50000000  0.00000000  0.31791100  1
  O  O9  1  0.64149800  0.14149800  0.78015700  1
  O  O10  1  0.41976000  0.67185800  0.28802800  1
  O  O11  1  0.67185800  0.58024000  0.71197200  1
  O  O12  1  0.58024000  0.32814200  0.28802800  1
  O  O13  1  0.08024000  0.17185800  0.71197200  1
loop_
_geom_bond_atom_site_label_1
_geom_bond_atom_site_label_2
_geom_bond_distance
_geom_bond_site_symmetry_2
Gd0 O8 2.307634 1_556
Gd0 O0 2.384465 1_556
Gd0 O13 2.398544 1_555
Gd0 O4 2.398544 1_555
Gd0 O3 2.494612 1_545
Gd0 O9 2.494612 1_555
Gd0 O1 2.622983 1_546
Gd0 O12 2.622983 1_556
Gd1 O8 2.307634 1_566
Gd1 O7 2.384465 1_556
Gd1 O11 2.398544 1_555
Gd1 O2 2.398544 1_555
Gd1 O9 2.494612 1_565
Gd1 O3 2.494612 1_555
Gd1 O5 2.622983 1_566
Gd1 O10 2.622983 1_556
Gd2 O6 2.307634 1_654
Gd2 O9 2.384465 1_554
Gd2 O12 2.398544 1_555
Gd2 O5 2.398544 1_555
Gd2 O0 2.494612 1_655
Gd2 O7 2.494612 1_555
Gd2 O11 2.622983 1_554
Gd2 O13 2.622983 1_654
Gd3 O6 2.307634 1_554
Gd3 O3 2.384465 1_554
Gd3 O1 2.398544 1_555
Gd3 O10 2.398544 1_555
Gd3 O7 2.494612 1_455
Gd3 O0 2.494612 1_555
Gd3 O2 2.622983 1_454
Gd3 O4 2.622983 1_554
Be0 O6 1.580862 1_655
Be0 O7 1.591802 1_555
Be0 O11 1.710029 1_555
Be0 O2 1.710029 1_555
Be1 O8 1.580862 1_565
Be1 O3 1.591802 1_555
Be1 O10 1.710029 1_555
Be1 O1 1.710029 1_555
Be2 O6 1.580862 1_555
Be2 O0 1.591802 1_555
Be2 O4 1.710029 1_555
Be2 O13 1.710029 1_555
Be3 O8 1.580862 1_555
Be3 O9 1.591802 1_555
Be3 O5 1.710029 1_555
Be3 O12 1.710029 1_555
Ge0 O4 1.760022 1_555
Ge0 O11 1.760022 1_555
Ge0 O10 1.760022 1_555
Ge0 O12 1.760022 1_555
Ge1 O13 1.760022 1_555
Ge1 O1 1.760022 1_545
Ge1 O2 1.760022 1_445
Ge1 O5 1.760022 1_455
