# generated using pymatgen
data_Pr5Ga3
_symmetry_space_group_name_H-M   'P 1'
_cell_length_a   7.93464099
_cell_length_b   7.93464099
_cell_length_c   14.71104521
_cell_angle_alpha   90.00000000
_cell_angle_beta   90.00000000
_cell_angle_gamma   90.00000000
_symmetry_Int_Tables_number   1
_chemical_formula_structural   Pr5Ga3
_chemical_formula_sum   'Pr20 Ga12'
_cell_volume   926.18574647
_cell_formula_units_Z   4
loop_
 _symmetry_equiv_pos_site_id
 _symmetry_equiv_pos_as_xyz
  1  'x, y, z'
loop_
 _atom_site_type_symbol
 _atom_site_label
 _atom_site_symmetry_multiplicity
 _atom_site_fract_x
 _atom_site_fract_y
 _atom_site_fract_z
 _atom_site_occupancy
  Pr  Pr0  1  0.56348280  0.09025395  0.60380852  1
  Pr  Pr1  1  0.93651720  0.09025395  0.10380852  1
  Pr  Pr2  1  0.90974605  0.06348280  0.39619148  1
  Pr  Pr3  1  0.75000000  0.75000000  0.71721601  1
  Pr  Pr4  1  0.59025395  0.43651720  0.39619148  1
  Pr  Pr5  1  0.43651720  0.90974605  0.39619148  1
  Pr  Pr6  1  0.40974605  0.56348280  0.60380852  1
  Pr  Pr7  1  0.09025395  0.93651720  0.60380852  1
  Pr  Pr8  1  0.75000000  0.75000000  0.21721601  1
  Pr  Pr9  1  0.40974605  0.93651720  0.10380852  1
  Pr  Pr10  1  0.43651720  0.59025395  0.89619148  1
  Pr  Pr11  1  0.59025395  0.06348280  0.89619148  1
  Pr  Pr12  1  0.06348280  0.59025395  0.39619148  1
  Pr  Pr13  1  0.93651720  0.40974605  0.60380852  1
  Pr  Pr14  1  0.56348280  0.40974605  0.10380852  1
  Pr  Pr15  1  0.06348280  0.90974605  0.89619148  1
  Pr  Pr16  1  0.09025395  0.56348280  0.10380852  1
  Pr  Pr17  1  0.25000000  0.25000000  0.28278399  1
  Pr  Pr18  1  0.90974605  0.43651720  0.89619148  1
  Pr  Pr19  1  0.25000000  0.25000000  0.78278399  1
  Ga  Ga0  1  0.36732364  0.63267636  0.25000000  1
  Ga  Ga1  1  0.86732364  0.13267636  0.75000000  1
  Ga  Ga2  1  0.13267636  0.63267636  0.75000000  1
  Ga  Ga3  1  0.13267636  0.86732364  0.25000000  1
  Ga  Ga4  1  0.63267636  0.13267636  0.25000000  1
  Ga  Ga5  1  0.36732364  0.86732364  0.75000000  1
  Ga  Ga6  1  0.75000000  0.75000000  0.50568912  1
  Ga  Ga7  1  0.63267636  0.36732364  0.75000000  1
  Ga  Ga8  1  0.25000000  0.25000000  0.49431088  1
  Ga  Ga9  1  0.25000000  0.25000000  0.99431088  1
  Ga  Ga10  1  0.86732364  0.36732364  0.25000000  1
  Ga  Ga11  1  0.75000000  0.75000000  0.00568912  1
loop_
_geom_bond_atom_site_label_1
_geom_bond_atom_site_label_2
_geom_bond_distance
_geom_bond_site_symmetry_2
Pr0 Pr3 3.501784 1_545
Pr0 Pr5 3.520628 1_545
Pr0 Pr19 3.837434 1_555
Pr0 Pr13 3.897111 1_555
Pr0 Pr6 3.948076 1_555
Pr0 Pr7 3.948076 1_545
Pr0 Pr2 4.113668 1_555
Pr0 Pr4 4.113668 1_555
Pr1 Pr8 3.501784 1_545
Pr1 Pr15 3.520628 1_644
Pr1 Pr17 3.837434 1_655
Pr1 Pr14 3.897111 1_555
Pr1 Pr16 3.948076 1_655
Pr1 Pr9 3.948076 1_645
Pr1 Pr11 4.113668 1_554
Pr1 Pr18 4.113668 1_554
Pr2 Pr7 3.520628 1_645
Pr2 Pr8 3.837434 1_545
Pr2 Pr4 3.897111 1_555
Pr2 Pr5 3.948076 1_545
Pr3 Pr7 3.501784 1_655
Pr3 Pr6 3.501784 1_555
Pr4 Pr6 3.520628 1_555
Pr4 Pr8 3.837434 1_555
Pr4 Pr5 3.948076 1_555
Pr5 Pr8 3.837434 1_555
Pr5 Pr7 4.113668 1_555
Pr5 Pr6 4.113668 1_555
Pr6 Pr7 3.897111 1_555
Pr8 Pr9 3.501784 1_555
Pr10 Pr19 3.501784 1_555
Pr10 Pr14 3.520628 1_556
Pr10 Pr3 3.837434 1_555
Pr10 Pr15 3.897111 1_555
Pr10 Pr11 3.948076 1_565
Pr10 Pr18 3.948076 1_555
Pr10 Pr9 4.113668 1_556
Pr10 Pr16 4.113668 1_556
Pr11 Pr19 3.501784 1_555
Pr11 Pr9 3.520628 1_546
Pr11 Pr3 3.837434 1_545
Pr11 Pr18 3.897111 1_555
Pr11 Pr15 3.948076 1_645
Pr11 Pr14 4.113668 1_556
Pr12 Pr17 3.501784 1_555
Pr12 Pr13 3.520628 1_455
Pr12 Pr8 3.837434 1_455
Pr12 Pr5 3.897111 1_555
Pr12 Pr2 3.948076 1_465
Pr12 Pr4 3.948076 1_455
Pr12 Pr7 4.113668 1_555
Pr12 Pr6 4.113668 1_555
Pr13 Pr3 3.501784 1_555
Pr13 Pr19 3.837434 1_655
Pr13 Pr6 3.948076 1_655
Pr13 Pr7 3.948076 1_645
Pr13 Pr4 4.113668 1_555
Pr13 Pr2 4.113668 1_555
Pr14 Pr8 3.501784 1_555
Pr14 Pr17 3.837434 1_555
Pr14 Pr16 3.948076 1_555
Pr14 Pr9 3.948076 1_545
Pr14 Pr18 4.113668 1_554
Pr15 Pr19 3.501784 1_565
Pr15 Pr3 3.837434 1_455
Pr15 Pr18 3.948076 1_455
Pr15 Pr16 4.113668 1_556
Pr15 Pr9 4.113668 1_556
Pr16 Pr8 3.501784 1_455
Pr16 Pr18 3.520628 1_454
Pr16 Pr17 3.837434 1_555
Pr16 Pr9 3.897111 1_555
Pr17 Pr4 3.501784 1_555
Pr17 Pr5 3.501784 1_545
Pr17 Pr2 3.501784 1_455
Pr17 Pr9 3.837434 1_545
Pr18 Pr19 3.501784 1_655
Pr18 Pr3 3.837434 1_555
Pr19 Pr6 3.837434 1_555
Pr19 Pr7 3.837434 1_545
Ga0 Ga3 2.633042 1_555
Ga0 Pr5 3.124070 1_555
Ga0 Pr16 3.124070 1_555
Ga0 Pr14 3.190088 1_555
Ga0 Pr4 3.190088 1_555
Ga0 Pr8 3.212310 1_555
Ga0 Pr17 3.212310 1_555
Ga0 Pr9 3.248199 1_555
Ga0 Pr12 3.248199 1_555
Ga1 Ga7 2.633042 1_555
Ga1 Pr13 3.124070 1_555
Ga1 Pr11 3.124070 1_555
Ga1 Pr15 3.190088 1_645
Ga1 Pr7 3.190088 1_645
Ga1 Pr19 3.212310 1_655
Ga1 Pr3 3.212310 1_545
Ga1 Pr18 3.248199 1_555
Ga1 Pr0 3.248199 1_555
Ga2 Ga5 2.633042 1_555
Ga2 Pr6 3.124070 1_555
Ga2 Pr15 3.124070 1_555
Ga2 Pr18 3.190088 1_455
Ga2 Pr13 3.190088 1_455
Ga2 Pr3 3.212310 1_455
Ga2 Pr19 3.212310 1_555
Ga2 Pr7 3.248199 1_555
Ga2 Pr10 3.248199 1_555
Ga3 Pr9 3.124070 1_555
Ga3 Pr12 3.124070 1_555
Ga3 Pr2 3.190088 1_465
Ga3 Pr1 3.190088 1_465
Ga3 Pr17 3.212310 1_565
Ga3 Pr8 3.212310 1_455
Ga3 Pr5 3.248199 1_555
Ga3 Pr16 3.248199 1_555
Ga4 Pr14 3.124070 1_555
Ga4 Pr2 3.124070 1_555
Ga4 Pr5 3.190088 1_545
Ga4 Pr9 3.190088 1_545
Ga4 Pr8 3.212310 1_545
Ga4 Pr17 3.212310 1_555
Ga4 Pr1 3.248199 1_555
Ga4 Pr4 3.248199 1_555
Ga5 Pr7 3.124070 1_555
Ga5 Pr10 3.124070 1_555
Ga5 Pr11 3.190088 1_565
Ga5 Pr0 3.190088 1_565
Ga5 Pr19 3.212310 1_565
Ga5 Pr3 3.212310 1_555
Ga5 Pr6 3.248199 1_555
Ga5 Pr15 3.248199 1_555
Ga6 Pr3 3.111782 1_555
Ga6 Pr2 3.223106 1_565
Ga6 Pr12 3.223106 1_655
Ga6 Pr4 3.223106 1_555
Ga6 Pr5 3.223106 1_555
Ga6 Pr7 3.400388 1_655
Ga6 Pr13 3.400388 1_555
Ga6 Pr0 3.400388 1_565
Ga6 Pr6 3.400388 1_555
Ga7 Pr18 3.124070 1_555
Ga7 Pr0 3.124070 1_555
Ga7 Pr6 3.190088 1_555
Ga7 Pr10 3.190088 1_555
Ga7 Pr3 3.212310 1_555
Ga7 Pr19 3.212310 1_555
Ga7 Pr13 3.248199 1_555
Ga7 Pr11 3.248199 1_555
Ga8 Pr17 3.111782 1_555
Ga8 Pr0 3.223106 1_555
Ga8 Pr6 3.223106 1_555
Ga8 Pr7 3.223106 1_545
Ga8 Pr13 3.223106 1_455
Ga8 Pr5 3.400388 1_545
Ga8 Pr4 3.400388 1_555
Ga8 Pr12 3.400388 1_555
Ga8 Pr2 3.400388 1_455
Ga9 Pr19 3.111782 1_555
Ga9 Pr16 3.223106 1_556
Ga9 Pr14 3.223106 1_556
Ga9 Pr9 3.223106 1_546
Ga9 Pr1 3.223106 1_456
Ga9 Pr10 3.400388 1_555
Ga9 Pr18 3.400388 1_455
Ga9 Pr15 3.400388 1_545
Ga9 Pr11 3.400388 1_555
Ga10 Ga4 2.633042 1_555
Ga10 Pr1 3.124070 1_555
Ga10 Pr4 3.124070 1_555
Ga10 Pr12 3.190088 1_655
Ga10 Pr16 3.190088 1_655
Ga10 Pr17 3.212310 1_655
Ga10 Pr8 3.212310 1_555
Ga10 Pr14 3.248199 1_555
Ga10 Pr2 3.248199 1_555
Ga11 Pr8 3.111782 1_555
Ga11 Pr11 3.223106 1_564
Ga11 Pr15 3.223106 1_654
Ga11 Pr18 3.223106 1_554
Ga11 Pr10 3.223106 1_554
Ga11 Pr1 3.400388 1_565
Ga11 Pr9 3.400388 1_555
Ga11 Pr16 3.400388 1_655
Ga11 Pr14 3.400388 1_555
