# generated using pymatgen
data_Ca4ThF12
_symmetry_space_group_name_H-M   'P 1'
_cell_length_a   3.97016000
_cell_length_b   4.09507762
_cell_length_c   16.13171946
_cell_angle_alpha   90.41176599
_cell_angle_beta   96.38583799
_cell_angle_gamma   117.61311709
_symmetry_Int_Tables_number   1
_chemical_formula_structural   Ca4ThF12
_chemical_formula_sum   'Ca4 Th1 F12'
_cell_volume   230.44166951
_cell_formula_units_Z   1
loop_
 _symmetry_equiv_pos_site_id
 _symmetry_equiv_pos_as_xyz
  1  'x, y, z'
loop_
 _atom_site_type_symbol
 _atom_site_label
 _atom_site_symmetry_multiplicity
 _atom_site_fract_x
 _atom_site_fract_y
 _atom_site_fract_z
 _atom_site_occupancy
  Ca  Ca0  1  0.94562900  0.95351000  0.98206200  1
  Ca  Ca1  1  0.13575600  0.56084300  0.78961500  1
  Ca  Ca2  1  0.35979300  0.17847100  0.59860500  1
  Ca  Ca3  1  0.59264200  0.78508400  0.40591500  1
  Th  Th0  1  0.77075100  0.34906900  0.19490000  1
  F  F0  1  0.22235900  0.57773800  0.93416300  1
  F  F1  1  0.66989100  0.83296900  0.55214100  1
  F  F2  1  0.83057900  0.90285100  0.83624100  1
  F  F3  1  0.44303500  0.21617500  0.74402300  1
  F  F4  1  0.92127000  0.47214400  0.35296000  1
  F  F5  1  0.05067300  0.52421500  0.64469900  1
  F  F6  1  0.97450800  0.89687200  0.12439800  1
  F  F7  1  0.28995400  0.14505800  0.45358000  1
  F  F8  1  0.22492300  0.14812300  0.26405500  1
  F  F9  1  0.55729400  0.79215600  0.26248500  1
  F  F10  1  0.30806300  0.53739500  0.12368500  1
  F  F11  1  0.60688000  0.22732800  0.03647400  1
loop_
_geom_bond_atom_site_label_1
_geom_bond_atom_site_label_2
_geom_bond_distance
_geom_bond_site_symmetry_2
Ca0 F6 2.304967 1_556
Ca0 F2 2.334807 1_555
Ca0 F11 2.341560 1_566
Ca0 F11 2.379972 1_666
Ca0 F0 2.431262 1_655
Ca0 F0 2.439749 1_665
Ca0 F0 2.569771 1_555
Ca0 F11 2.831111 1_556
Ca1 F0 2.314653 1_555
Ca1 F5 2.318185 1_555
Ca1 F2 2.399138 1_455
Ca1 F3 2.408779 1_555
Ca1 F3 2.456321 1_455
Ca1 F2 2.465519 1_555
Ca1 F3 2.534593 1_565
Ca1 F2 2.549448 1_445
Ca2 F7 2.320519 1_555
Ca2 F3 2.326171 1_555
Ca2 F5 2.421221 1_555
Ca2 F1 2.425715 1_545
Ca2 F1 2.449802 1_445
Ca2 F5 2.451979 1_655
Ca2 F5 2.533949 1_545
Ca2 F1 2.537008 1_555
Ca3 F9 2.303601 1_555
Ca3 F1 2.339548 1_555
Ca3 F4 2.405822 1_455
Ca3 F4 2.420004 1_555
Ca3 F7 2.457603 1_565
Ca3 F7 2.481053 1_665
Ca3 F7 2.493906 1_555
Ca3 F4 2.688445 1_565
F0 F11 2.782569 1_566
F0 F2 2.821085 1_445
F0 F2 2.827948 1_555
F0 F2 2.844383 1_455
F0 F11 2.904268 1_456
F0 F11 2.935625 1_556
F0 F10 3.052575 1_556
F1 F5 2.722203 1_655
F1 F7 2.778380 1_565
F1 F5 2.798928 1_555
F1 F5 2.828058 1_665
F1 F7 2.863931 1_555
F1 F7 2.864421 1_665
F2 F3 2.752276 1_565
F2 F3 2.777004 1_665
F2 F3 2.812060 1_555
F3 F5 2.807216 1_555
F3 F5 2.836578 1_655
F3 F5 2.882878 1_545
F4 Th0 2.544777 1_555
F4 F8 2.666648 1_655
F4 F8 2.674083 1_555
F4 F9 2.692483 1_555
F4 F9 2.777529 1_545
F4 F7 2.809185 1_655
F4 F9 2.829051 1_655
F4 F7 2.835291 1_665
F4 F8 2.919112 1_665
F4 F7 2.921486 1_555
F6 Th0 2.353585 1_555
F6 F8 2.375464 1_665
F6 Th0 2.634390 1_565
F6 Th0 2.908485 1_665
F7 F8 3.040108 1_555
F8 F9 2.340912 1_555
F8 Th0 2.348531 1_555
F8 F9 2.356696 1_445
F8 F9 2.378413 1_545
F8 Th0 2.472686 1_455
F9 Th0 2.357466 1_565
F9 Th0 2.608009 1_555
F9 Th0 2.862527 1_455
F10 F6 2.327607 1_445
F10 Th0 2.344777 1_455
F10 F6 2.355901 1_555
F10 F9 2.365930 1_555
F10 F6 2.393976 1_455
F10 Th0 2.479006 1_555
F10 F11 2.596334 1_555
F10 F11 2.677228 1_455
F10 F8 2.740079 1_555
F10 F11 2.947955 1_565
F11 Th0 2.552349 1_555
F11 F6 2.715014 1_545
F11 F6 2.726463 1_555
F11 F6 2.795799 1_445
