# generated using pymatgen
data_Cd2GaAgS4
_symmetry_space_group_name_H-M   'P 1'
_cell_length_a   6.70078800
_cell_length_b   7.01090700
_cell_length_c   8.25106000
_cell_angle_alpha   90.00000000
_cell_angle_beta   90.00000000
_cell_angle_gamma   90.00000000
_symmetry_Int_Tables_number   1
_chemical_formula_structural   Cd2GaAgS4
_chemical_formula_sum   'Cd4 Ga2 Ag2 S8'
_cell_volume   387.62325965
_cell_formula_units_Z   2
loop_
 _symmetry_equiv_pos_site_id
 _symmetry_equiv_pos_as_xyz
  1  'x, y, z'
loop_
 _atom_site_type_symbol
 _atom_site_label
 _atom_site_symmetry_multiplicity
 _atom_site_fract_x
 _atom_site_fract_y
 _atom_site_fract_z
 _atom_site_occupancy
  Cd  Cd0  1  0.48747500  0.17514000  0.25261300  1
  Cd  Cd1  1  0.98747500  0.82486000  0.75261300  1
  Cd  Cd2  1  0.48747500  0.17514000  0.74738700  1
  Cd  Cd3  1  0.98747500  0.82486000  0.24738700  1
  Ga  Ga0  1  0.49105000  0.67704000  0.50000000  1
  Ga  Ga1  1  0.99105000  0.32296000  0.00000000  1
  Ag  Ag0  1  0.99038700  0.34123300  0.50000000  1
  Ag  Ag1  1  0.49038700  0.65876700  0.00000000  1
  S  S0  1  0.10604600  0.63416300  0.00000000  1
  S  S1  1  0.60604600  0.36583700  0.50000000  1
  S  S2  1  0.14620000  0.67843900  0.50000000  1
  S  S3  1  0.64620000  0.32156100  0.00000000  1
  S  S4  1  0.60356400  0.82464900  0.26665300  1
  S  S5  1  0.10356400  0.17535100  0.76665300  1
  S  S6  1  0.10356400  0.17535100  0.23334700  1
  S  S7  1  0.60356400  0.82464900  0.73334700  1
loop_
_geom_bond_atom_site_label_1
_geom_bond_atom_site_label_2
_geom_bond_distance
_geom_bond_site_symmetry_2
Cd0 S3 2.555271 1_555
Cd0 S1 2.566172 1_555
Cd0 S6 2.577413 1_555
Cd0 S4 2.580049 1_545
Cd1 S2 2.555271 1_655
Cd1 S0 2.566172 1_656
Cd1 S7 2.577413 1_555
Cd1 S5 2.580049 1_665
Cd2 S3 2.555271 1_556
Cd2 S1 2.566172 1_555
Cd2 S5 2.577413 1_555
Cd2 S7 2.580049 1_545
Cd3 S2 2.555271 1_655
Cd3 S0 2.566172 1_655
Cd3 S4 2.577413 1_555
Cd3 S6 2.580049 1_665
Ga0 S2 2.310788 1_555
Ga0 S7 2.312226 1_555
Ga0 S4 2.312226 1_555
Ga0 S1 2.313890 1_555
Ga1 S3 2.310788 1_555
Ga1 S6 2.312226 1_655
Ga1 S5 2.312226 1_654
Ga1 S0 2.313890 1_655
Ag0 S1 2.581158 1_555
Ag0 S2 2.584404 1_655
Ag0 S5 2.601617 1_655
Ag0 S6 2.601617 1_655
Ag1 S0 2.581158 1_555
Ag1 S3 2.584404 1_555
Ag1 S4 2.601617 1_555
Ag1 S7 2.601617 1_554
