# generated using pymatgen
data_CaMgSiO4
_symmetry_space_group_name_H-M   'P 1'
_cell_length_a   4.86888300
_cell_length_b   6.43127100
_cell_length_c   11.22358900
_cell_angle_alpha   90.00000000
_cell_angle_beta   90.00000000
_cell_angle_gamma   90.00000000
_symmetry_Int_Tables_number   1
_chemical_formula_structural   CaMgSiO4
_chemical_formula_sum   'Ca4 Mg4 Si4 O16'
_cell_volume   351.44543251
_cell_formula_units_Z   4
loop_
 _symmetry_equiv_pos_site_id
 _symmetry_equiv_pos_as_xyz
  1  'x, y, z'
loop_
 _atom_site_type_symbol
 _atom_site_label
 _atom_site_symmetry_multiplicity
 _atom_site_fract_x
 _atom_site_fract_y
 _atom_site_fract_z
 _atom_site_occupancy
  Ca  Ca0  1  0.02084300  0.75000000  0.27706800  1
  Ca  Ca1  1  0.97915700  0.25000000  0.72293200  1
  Ca  Ca2  1  0.47915700  0.75000000  0.77706800  1
  Ca  Ca3  1  0.52084300  0.25000000  0.22293200  1
  Mg  Mg0  1  0.00000000  0.00000000  0.00000000  1
  Mg  Mg1  1  0.00000000  0.50000000  0.00000000  1
  Mg  Mg2  1  0.50000000  0.00000000  0.50000000  1
  Mg  Mg3  1  0.50000000  0.50000000  0.50000000  1
  Si  Si0  1  0.08932100  0.25000000  0.41878900  1
  Si  Si1  1  0.41067900  0.25000000  0.91878900  1
  Si  Si2  1  0.91067900  0.75000000  0.58121100  1
  Si  Si3  1  0.58932100  0.75000000  0.08121100  1
  O  O0  1  0.22796900  0.45530700  0.35264800  1
  O  O1  1  0.72796900  0.54469300  0.14735200  1
  O  O2  1  0.77203100  0.95530700  0.64735200  1
  O  O3  1  0.27203100  0.04469300  0.85264800  1
  O  O4  1  0.77203100  0.54469300  0.64735200  1
  O  O5  1  0.27203100  0.45530700  0.85264800  1
  O  O6  1  0.22796900  0.04469300  0.35264800  1
  O  O7  1  0.72796900  0.95530700  0.14735200  1
  O  O8  1  0.74765800  0.75000000  0.94876000  1
  O  O9  1  0.24765800  0.25000000  0.55124000  1
  O  O10  1  0.25234200  0.25000000  0.05124000  1
  O  O11  1  0.75234200  0.75000000  0.44876000  1
  O  O12  1  0.25370500  0.75000000  0.07762600  1
  O  O13  1  0.75370500  0.25000000  0.42237400  1
  O  O14  1  0.74629500  0.25000000  0.92237400  1
  O  O15  1  0.24629500  0.75000000  0.57762600  1
loop_
_geom_bond_atom_site_label_1
_geom_bond_atom_site_label_2
_geom_bond_distance
_geom_bond_site_symmetry_2
Ca0 O6 2.308369 1_565
Ca0 O0 2.308369 1_555
Ca0 O11 2.328597 1_455
Ca0 O7 2.428248 1_455
Ca0 O1 2.428248 1_455
Ca0 O12 2.509210 1_555
Ca1 O4 2.308369 1_555
Ca1 O2 2.308369 1_545
Ca1 O9 2.328597 1_655
Ca1 O5 2.428248 1_655
Ca1 O3 2.428248 1_655
Ca1 O14 2.509210 1_555
Ca2 O3 2.308369 1_565
Ca2 O5 2.308369 1_555
Ca2 O8 2.328597 1_555
Ca2 O2 2.428248 1_555
Ca2 O4 2.428248 1_555
Ca2 O15 2.509210 1_555
Ca3 O1 2.308369 1_555
Ca3 O7 2.308369 1_545
Ca3 O10 2.328597 1_555
Ca3 O0 2.428248 1_555
Ca3 O6 2.428248 1_555
Ca3 O13 2.509210 1_555
Mg0 O10 2.103647 1_555
Mg0 O8 2.103647 1_444
Mg0 O7 2.138223 1_445
Mg0 O3 2.138223 1_554
Mg0 O12 2.206810 1_545
Mg0 O14 2.206810 1_454
Mg1 O10 2.103647 1_555
Mg1 O8 2.103647 1_454
Mg1 O1 2.138223 1_455
Mg1 O5 2.138223 1_554
Mg1 O12 2.206810 1_555
Mg1 O14 2.206810 1_454
Mg2 O11 2.103647 1_545
Mg2 O9 2.103647 1_555
Mg2 O2 2.138223 1_545
Mg2 O6 2.138223 1_555
Mg2 O15 2.206810 1_545
Mg2 O13 2.206810 1_555
Mg3 O11 2.103647 1_555
Mg3 O9 2.103647 1_555
Mg3 O4 2.138223 1_555
Mg3 O0 2.138223 1_555
Mg3 O15 2.206810 1_555
Mg3 O13 2.206810 1_555
O0 Si0 1.658370 1_555
O1 Si3 1.658370 1_555
O2 Si2 1.658370 1_555
O3 Si1 1.658370 1_555
O4 Si2 1.658370 1_555
O5 Si1 1.658370 1_555
O6 Si0 1.658370 1_555
O7 Si3 1.658370 1_555
O8 Si3 1.674584 1_556
O9 Si0 1.674584 1_555
O10 Si1 1.674584 1_554
O11 Si2 1.674584 1_555
O12 Si3 1.634570 1_555
O13 Si0 1.634570 1_655
O14 Si1 1.634570 1_555
O15 Si2 1.634570 1_455
