# generated using pymatgen
data_Li3Co13O5F19
_symmetry_space_group_name_H-M   'P 1'
_cell_length_a   6.12616400
_cell_length_b   6.15756448
_cell_length_c   12.24860456
_cell_angle_alpha   91.15063837
_cell_angle_beta   91.14042395
_cell_angle_gamma   91.13516551
_symmetry_Int_Tables_number   1
_chemical_formula_structural   Li3Co13O5F19
_chemical_formula_sum   'Li3 Co13 O5 F19'
_cell_volume   461.76583402
_cell_formula_units_Z   1
loop_
 _symmetry_equiv_pos_site_id
 _symmetry_equiv_pos_as_xyz
  1  'x, y, z'
loop_
 _atom_site_type_symbol
 _atom_site_label
 _atom_site_symmetry_multiplicity
 _atom_site_fract_x
 _atom_site_fract_y
 _atom_site_fract_z
 _atom_site_occupancy
  Li  Li0  1  0.50753500  0.49074800  0.25417200  1
  Li  Li1  1  0.50440800  0.49099900  0.75281600  1
  Li  Li2  1  0.00992000  0.98609300  0.49898600  1
  Co  Co0  1  0.25527200  0.94185300  0.71251500  1
  Co  Co1  1  0.26311400  0.93935400  0.21957700  1
  Co  Co2  1  0.06081500  0.59857200  0.36902400  1
  Co  Co3  1  0.07056700  0.58098000  0.87066400  1
  Co  Co4  1  0.54600900  0.75506600  0.53552800  1
  Co  Co5  1  0.54498300  0.75446100  0.03856500  1
  Co  Co6  1  0.02583700  0.01038200  0.98792200  1
  Co  Co7  1  0.40440200  0.22334000  0.47528900  1
  Co  Co8  1  0.39841700  0.24282600  0.97620000  1
  Co  Co9  1  0.94200400  0.42301900  0.11166500  1
  Co  Co10  1  0.92867600  0.42292900  0.62008800  1
  Co  Co11  1  0.78047500  0.05508400  0.29745700  1
  Co  Co12  1  0.77000600  0.05262800  0.79120900  1
  O  O0  1  0.05129200  0.90003300  0.33318500  1
  O  O1  1  0.04330900  0.88864100  0.83124800  1
  O  O2  1  0.31937000  0.96341300  0.55727500  1
  O  O3  1  0.31878300  0.96452800  0.06070600  1
  O  O4  1  0.09061700  0.33762600  0.97307300  1
  F  F0  1  0.19333800  0.56168200  0.20120100  1
  F  F1  1  0.19281800  0.55644600  0.70018600  1
  F  F2  1  0.58705000  0.81030300  0.22159900  1
  F  F3  1  0.58658800  0.80677400  0.71621400  1
  F  F4  1  0.08407400  0.32992100  0.47343100  1
  F  F5  1  0.40773400  0.57789800  0.40459200  1
  F  F6  1  0.42978100  0.58702200  0.90263400  1
  F  F7  1  0.58790900  0.42926600  0.09278000  1
  F  F8  1  0.58014800  0.42136200  0.58868100  1
  F  F9  1  0.87810900  0.71205600  0.02980500  1
  F  F10  1  0.88276700  0.68827400  0.52549100  1
  F  F11  1  0.42891400  0.18751000  0.79806000  1
  F  F12  1  0.43911000  0.19029000  0.30339400  1
  F  F13  1  0.82393000  0.40680000  0.28814800  1
  F  F14  1  0.81470600  0.40409100  0.78273800  1
  F  F15  1  0.69436200  0.04472000  0.45634300  1
  F  F16  1  0.68370300  0.05448800  0.95175800  1
  F  F17  1  0.93539800  0.10433000  0.64747000  1
  F  F18  1  0.93375200  0.10419100  0.14830900  1
loop_
_geom_bond_atom_site_label_1
_geom_bond_atom_site_label_2
_geom_bond_distance
_geom_bond_site_symmetry_2
Li2 O2 2.020815 1_555
Li2 O0 2.109956 1_555
Co0 O2 1.955815 1_555
Co0 O1 1.996495 1_555
Co0 F11 2.084661 1_565
Co0 F3 2.208684 1_555
Co0 F17 2.350160 1_465
Co0 F1 2.397592 1_555
Co1 O0 1.936977 1_555
Co1 O3 1.990850 1_555
Co1 F12 2.104801 1_565
Co1 F2 2.152107 1_555
Co1 F0 2.361626 1_555
Co1 F18 2.431062 1_465
Co2 O0 1.917766 1_555
Co2 F13 2.075957 1_455
Co2 F4 2.116431 1_555
Co2 F5 2.167700 1_555
Co2 F0 2.234094 1_555
Co2 F10 2.287438 1_455
Co3 O1 1.973814 1_555
Co3 O4 1.977519 1_555
Co3 F14 2.149691 1_455
Co3 F6 2.226938 1_555
Co3 F1 2.235624 1_555
Co3 F9 2.430459 1_456
Co4 O2 1.927723 1_555
Co4 F5 2.078183 1_555
Co4 F10 2.117087 1_555
Co4 F8 2.180633 1_555
Co4 F15 2.233413 1_565
Co4 F3 2.237829 1_555
Co5 O3 1.933612 1_555
Co5 F6 2.046615 1_554
Co5 F9 2.067172 1_555
Co5 F7 2.141749 1_555
Co5 F2 2.270098 1_555
Co5 F16 2.306165 1_564
Co6 O3 2.015369 1_546
Co6 O1 2.051752 1_545
Co6 O4 2.058351 1_555
Co6 F9 2.108815 1_446
Co6 F18 2.126659 1_456
Co6 F16 2.157194 1_455
Co7 O2 1.973271 1_545
Co7 F4 2.081349 1_555
Co7 F8 2.096525 1_555
Co7 F15 2.121913 1_555
Co7 F12 2.126493 1_555
Co7 F5 2.364647 1_555
Co8 O4 1.984808 1_555
Co8 O3 2.074647 1_546
Co8 F7 2.126013 1_556
Co8 F16 2.139210 1_555
Co8 F11 2.213775 1_555
Co8 F6 2.325557 1_555
Co9 O4 2.007910 1_654
Co9 F18 2.022509 1_555
Co9 F0 2.036064 1_655
Co9 F9 2.099947 1_555
Co9 F7 2.178140 1_555
Co9 F13 2.296533 1_555
Co10 F17 1.997973 1_555
Co10 F1 2.026979 1_655
Co10 F10 2.042663 1_555
Co10 F4 2.123555 1_655
Co10 F14 2.128704 1_555
Co10 F8 2.161768 1_555
Co11 O0 1.976407 1_645
Co11 F15 2.028380 1_555
Co11 F2 2.090077 1_545
Co11 F18 2.095178 1_555
Co11 F13 2.182308 1_555
Co11 F12 2.268122 1_555
Co12 O1 2.029186 1_645
Co12 F16 2.046341 1_555
Co12 F3 2.057626 1_545
Co12 F17 2.075674 1_555
Co12 F14 2.180824 1_555
Co12 F11 2.266309 1_555
F0 Li0 2.076456 1_555
F0 F7 2.904080 1_555
F1 Li1 2.052709 1_555
F1 F8 2.889500 1_555
F2 Li0 2.066282 1_555
F3 Li1 2.059217 1_555
F3 F6 2.850882 1_555
F4 Li2 2.186506 1_545
F4 F5 2.640503 1_555
F5 Li0 2.018534 1_555
F5 F8 2.676154 1_555
F6 Li1 1.981562 1_555
F6 F7 2.710112 1_556
F7 Li0 2.075978 1_555
F7 F9 2.602614 1_555
F8 Li1 2.109824 1_555
F10 Li2 2.013088 1_655
F10 F8 2.593192 1_555
F10 F4 2.622806 1_655
F11 Li1 2.007684 1_555
F11 F16 2.578178 1_555
F12 Li0 1.996538 1_555
F12 F15 2.600904 1_555
F13 Li0 2.052700 1_555
F13 F18 2.612626 1_555
F13 F4 2.800614 1_655
F14 Li1 2.013631 1_555
F14 F17 2.584337 1_555
F15 Li2 2.033538 1_645
F15 F17 2.757178 1_555
F15 F8 2.907612 1_555
F16 F9 2.629329 1_546
F16 O3 2.680435 1_546
F16 F18 2.835697 1_556
F17 Li2 2.009794 1_645
F18 F9 2.803620 1_545
