# generated using pymatgen
data_Cd2B2O5
_symmetry_space_group_name_H-M   'P 1'
_cell_length_a   3.45243064
_cell_length_b   6.38946658
_cell_length_c   9.98582589
_cell_angle_alpha   105.61581076
_cell_angle_beta   90.65413793
_cell_angle_gamma   91.82170449
_symmetry_Int_Tables_number   1
_chemical_formula_structural   Cd2B2O5
_chemical_formula_sum   'Cd4 B4 O10'
_cell_volume   211.99548150
_cell_formula_units_Z   2
loop_
 _symmetry_equiv_pos_site_id
 _symmetry_equiv_pos_as_xyz
  1  'x, y, z'
loop_
 _atom_site_type_symbol
 _atom_site_label
 _atom_site_symmetry_multiplicity
 _atom_site_fract_x
 _atom_site_fract_y
 _atom_site_fract_z
 _atom_site_occupancy
  Cd  Cd0  1  0.75097283  0.22164649  0.87392588  1
  Cd  Cd1  1  0.24902717  0.77835351  0.12607412  1
  Cd  Cd2  1  0.77370256  0.65217266  0.40730405  1
  Cd  Cd3  1  0.22629744  0.34782734  0.59269595  1
  B  B0  1  0.67545383  0.12612899  0.31937699  1
  B  B1  1  0.32454617  0.87387101  0.68062301  1
  B  B2  1  0.67369265  0.67284136  0.84404947  1
  B  B3  1  0.32630735  0.32715864  0.15595053  1
  O  O0  1  0.47376612  0.15354420  0.20107670  1
  O  O1  1  0.52623388  0.84645580  0.79892330  1
  O  O2  1  0.27115961  0.70457449  0.56432065  1
  O  O3  1  0.72884039  0.29542551  0.43567935  1
  O  O4  1  0.20350995  0.07932725  0.69737834  1
  O  O5  1  0.79649005  0.92067275  0.30262166  1
  O  O6  1  0.25610211  0.29031686  0.01776750  1
  O  O7  1  0.74389789  0.70968314  0.98223250  1
  O  O8  1  0.27120114  0.52395231  0.24872328  1
  O  O9  1  0.72879886  0.47604769  0.75127672  1
loop_
_geom_bond_atom_site_label_1
_geom_bond_atom_site_label_2
_geom_bond_distance
_geom_bond_site_symmetry_2
Cd0 O6 2.202685 1_656
Cd0 O6 2.222406 1_556
Cd0 O9 2.285971 1_555
Cd0 O4 2.380348 1_655
Cd0 O1 2.410747 1_545
Cd0 O4 2.541442 1_555
Cd1 O7 2.202685 1_454
Cd1 O7 2.222406 1_554
Cd1 O8 2.285971 1_555
Cd1 O5 2.380348 1_455
Cd1 O0 2.410747 1_565
Cd1 O5 2.541442 1_555
Cd2 O5 2.236270 1_555
Cd2 O2 2.267035 1_655
Cd2 O8 2.310197 1_555
Cd2 O2 2.323180 1_555
Cd2 O8 2.362634 1_655
Cd2 O3 2.371988 1_555
Cd3 O4 2.236270 1_555
Cd3 O3 2.267035 1_455
Cd3 O9 2.310197 1_555
Cd3 O3 2.323180 1_555
Cd3 O9 2.362634 1_455
Cd3 O2 2.371988 1_555
B0 O5 1.357998 1_545
B0 O3 1.363438 1_555
B0 O0 1.418254 1_555
B1 O4 1.357998 1_565
B1 O2 1.363438 1_555
B1 O1 1.418254 1_555
B2 O7 1.353539 1_555
B2 O9 1.366603 1_555
B2 O1 1.411586 1_555
B3 O6 1.353539 1_555
B3 O8 1.366603 1_555
B3 O0 1.411586 1_555
