# generated using pymatgen
data_Mn6O5F7
_symmetry_space_group_name_H-M   'P 1'
_cell_length_a   5.28192800
_cell_length_b   5.36521137
_cell_length_c   14.83199585
_cell_angle_alpha   93.87400737
_cell_angle_beta   91.76796709
_cell_angle_gamma   91.58136315
_symmetry_Int_Tables_number   1
_chemical_formula_structural   Mn6O5F7
_chemical_formula_sum   'Mn12 O10 F14'
_cell_volume   418.97315053
_cell_formula_units_Z   2
loop_
 _symmetry_equiv_pos_site_id
 _symmetry_equiv_pos_as_xyz
  1  'x, y, z'
loop_
 _atom_site_type_symbol
 _atom_site_label
 _atom_site_symmetry_multiplicity
 _atom_site_fract_x
 _atom_site_fract_y
 _atom_site_fract_z
 _atom_site_occupancy
  Mn  Mn0  1  0.98482400  0.97358500  0.00185200  1
  Mn  Mn1  1  0.47957900  0.15681300  0.83002300  1
  Mn  Mn2  1  0.98674900  0.89266700  0.66506500  1
  Mn  Mn3  1  0.53027700  0.94667300  0.49290700  1
  Mn  Mn4  1  0.94289500  0.98496100  0.33214900  1
  Mn  Mn5  1  0.43981000  0.94760100  0.17910900  1
  Mn  Mn6  1  0.97663800  0.48062200  0.83335200  1
  Mn  Mn7  1  0.52159800  0.61581400  0.98789000  1
  Mn  Mn8  1  0.61599400  0.49169000  0.34149300  1
  Mn  Mn9  1  0.99308700  0.43776500  0.49319200  1
  Mn  Mn10  1  0.41221600  0.53295000  0.67377600  1
  Mn  Mn11  1  0.91652100  0.58869900  0.16195400  1
  O  O0  1  0.83986900  0.69813700  0.41937100  1
  O  O1  1  0.18148300  0.66893600  0.58469900  1
  O  O2  1  0.70735700  0.83551500  0.08839800  1
  O  O3  1  0.13151400  0.81380000  0.23827900  1
  O  O4  1  0.82330600  0.69245300  0.92423600  1
  O  O5  1  0.14536000  0.69150100  0.75128600  1
  O  O6  1  0.65352300  0.78697300  0.26413300  1
  O  O7  1  0.74266000  0.21446900  0.41143300  1
  O  O8  1  0.64648600  0.40909200  0.76497900  1
  O  O9  1  0.31289700  0.41562000  0.90001000  1
  F  F0  1  0.64690700  0.91709100  0.74542300  1
  F  F1  1  0.33487800  0.93415600  0.92207600  1
  F  F2  1  0.33732000  0.62850900  0.41909000  1
  F  F3  1  0.22214500  0.63806900  0.06862300  1
  F  F4  1  0.68460000  0.66317700  0.58915400  1
  F  F5  1  0.73416100  0.35690700  0.07683000  1
  F  F6  1  0.41029000  0.20445000  0.59376400  1
  F  F7  1  0.41447000  0.28294900  0.25694000  1
  F  F8  1  0.90506500  0.13568600  0.57414600  1
  F  F9  1  0.83837100  0.19342400  0.90513000  1
  F  F10  1  0.91083200  0.31883500  0.24899300  1
  F  F11  1  0.21553600  0.12165300  0.41752500  1
  F  F12  1  0.23087000  0.13094400  0.09547100  1
  F  F13  1  0.12991100  0.19781500  0.74725000  1
loop_
_geom_bond_atom_site_label_1
_geom_bond_atom_site_label_2
_geom_bond_distance
_geom_bond_site_symmetry_2
Mn0 O4 1.990452 1_554
Mn0 O2 2.128150 1_555
Mn1 O8 1.924323 1_555
Mn1 O9 1.926092 1_555
Mn2 O5 1.916365 1_655
Mn2 O1 1.967263 1_655
Mn3 O7 2.238826 1_565
Mn3 O0 2.382347 1_555
Mn3 O1 2.783072 1_555
Mn4 O3 1.933293 1_655
Mn4 O7 1.992640 1_565
Mn4 O6 2.037806 1_555
Mn4 O0 2.145712 1_555
Mn5 O6 1.928718 1_555
Mn5 O3 2.011469 1_555
Mn5 O2 2.055173 1_555
Mn6 O4 1.917244 1_555
Mn6 O5 1.937328 1_655
Mn6 O8 2.004501 1_555
Mn6 O9 2.055734 1_655
Mn7 O4 1.925906 1_555
Mn7 O9 1.929917 1_555
Mn7 O2 2.045210 1_556
Mn8 O0 1.905232 1_555
Mn8 O7 1.989096 1_555
Mn8 O6 2.026826 1_555
Mn9 O1 1.997916 1_655
Mn9 O0 2.004907 1_555
Mn9 O7 2.067047 1_555
Mn10 O1 1.960380 1_555
Mn10 O8 1.966258 1_555
Mn10 O5 2.016436 1_555
Mn11 O3 1.920909 1_655
Mn11 O2 2.089486 1_555
Mn11 O6 2.313384 1_555
O8 O9 2.707147 1_555
F0 Mn1 1.980636 1_565
F0 Mn2 2.187170 1_555
F0 Mn10 2.528912 1_555
F0 F4 2.623813 1_555
F0 O8 2.636096 1_565
F0 O8 2.760278 1_555
F0 F9 2.850747 1_565
F1 Mn1 2.027250 1_565
F1 Mn0 2.232983 1_456
F1 Mn7 2.258666 1_555
F1 O9 2.630919 1_565
F1 O9 2.777988 1_555
F1 F12 2.789792 1_566
F2 Mn8 2.019917 1_555
F2 Mn3 2.175760 1_555
F2 Mn9 2.394532 1_455
F2 O1 2.611639 1_555
F2 O0 2.664201 1_455
F3 Mn7 2.014400 1_554
F3 Mn11 2.180860 1_455
F3 Mn0 2.466035 1_455
F3 Mn5 2.485114 1_555
F3 O9 2.758758 1_554
F4 Mn10 2.075528 1_555
F4 Mn2 2.219014 1_555
F4 Mn3 2.303432 1_555
F4 Mn9 2.482468 1_555
F4 O1 2.626751 1_655
F4 O1 2.657295 1_555
F4 O0 2.689234 1_555
F4 F6 2.827247 1_555
F5 Mn11 1.927457 1_555
F5 Mn7 2.274335 1_554
F5 O2 2.570074 1_555
F5 Mn0 2.674201 1_545
F5 F9 2.714603 1_554
F5 O2 2.814126 1_545
F6 Mn10 2.056793 1_555
F6 Mn3 2.092722 1_545
F6 F8 2.671346 1_555
F6 F8 2.687982 1_455
F7 Mn8 1.903176 1_555
F7 Mn5 2.080833 1_545
F8 Mn2 1.984284 1_545
F8 Mn9 2.130821 1_555
F8 Mn3 2.444585 1_545
F8 O7 2.601714 1_555
F9 Mn6 2.061211 1_555
F9 Mn0 2.063519 1_546
F9 Mn1 2.165785 1_555
F9 O4 2.676885 1_555
F9 O4 2.720937 1_545
F9 O9 2.751018 1_655
F10 Mn11 2.004095 1_555
F10 Mn4 2.249677 1_545
F10 Mn8 2.281928 1_555
F10 F7 2.630362 1_555
F10 F7 2.671986 1_655
F10 F5 2.714214 1_555
F11 Mn4 1.979611 1_445
F11 Mn3 2.237948 1_545
F11 Mn9 2.334666 1_455
F11 O7 2.560359 1_455
F11 F2 2.741532 1_545
F11 F2 2.775499 1_555
F11 F6 2.782146 1_555
F12 Mn5 1.965904 1_545
F12 Mn0 1.999877 1_445
F12 F7 2.624928 1_555
F12 F3 2.646372 1_545
F12 F3 2.777736 1_555
F13 Mn2 2.084029 1_445
F13 Mn6 2.111475 1_455
F13 Mn1 2.210371 1_555
F13 Mn10 2.619376 1_555
F13 O5 2.644306 1_555
F13 O5 2.724596 1_545
F13 F6 2.755538 1_555
F13 F8 2.790673 1_455
F13 O8 2.834592 1_455
F13 F9 2.843101 1_455
