# generated using pymatgen
data_Li4Mn5(NiO6)2
_symmetry_space_group_name_H-M   'P 1'
_cell_length_a   8.91998200
_cell_length_b   5.18731900
_cell_length_c   9.83410023
_cell_angle_alpha   79.29749843
_cell_angle_beta   90.00000000
_cell_angle_gamma   90.00000000
_symmetry_Int_Tables_number   1
_chemical_formula_structural   Li4Mn5(NiO6)2
_chemical_formula_sum   'Li8 Mn10 Ni4 O24'
_cell_volume   447.11619108
_cell_formula_units_Z   2
loop_
 _symmetry_equiv_pos_site_id
 _symmetry_equiv_pos_as_xyz
  1  'x, y, z'
loop_
 _atom_site_type_symbol
 _atom_site_label
 _atom_site_symmetry_multiplicity
 _atom_site_fract_x
 _atom_site_fract_y
 _atom_site_fract_z
 _atom_site_occupancy
  Li  Li0  1  0.91794600  0.48681800  0.26346600  1
  Li  Li1  1  0.58900600  0.00737400  0.74258200  1
  Li  Li2  1  0.57575400  0.75050800  0.49543500  1
  Li  Li3  1  0.58031800  0.49537200  0.25878300  1
  Li  Li4  1  0.41794600  0.51318200  0.73653400  1
  Li  Li5  1  0.07575400  0.24949200  0.50456500  1
  Li  Li6  1  0.08900600  0.99262600  0.25741800  1
  Li  Li7  1  0.08031800  0.50462800  0.74121700  1
  Mn  Mn0  1  0.92742500  0.24189500  0.99841500  1
  Mn  Mn1  1  0.91847900  0.75551300  0.50057200  1
  Mn  Mn2  1  0.73664800  0.98995300  0.26044300  1
  Mn  Mn3  1  0.74594500  0.51539100  0.74083600  1
  Mn  Mn4  1  0.58447000  0.25363400  0.00335400  1
  Mn  Mn5  1  0.41847900  0.24448700  0.49942800  1
  Mn  Mn6  1  0.42742500  0.75810500  0.00158500  1
  Mn  Mn7  1  0.23664800  0.01004700  0.73955700  1
  Mn  Mn8  1  0.24594500  0.48460900  0.25916400  1
  Mn  Mn9  1  0.08447000  0.74636600  0.99664600  1
  Ni  Ni0  1  0.74679900  0.24727100  0.50580800  1
  Ni  Ni1  1  0.75525700  0.75449500  0.99442600  1
  Ni  Ni2  1  0.25525700  0.24550500  0.00557400  1
  Ni  Ni3  1  0.24679900  0.75272900  0.49419200  1
  O  O0  1  0.89952600  0.10008200  0.37718300  1
  O  O1  1  0.92579000  0.88661100  0.10507500  1
  O  O2  1  0.92534500  0.59511000  0.89490100  1
  O  O3  1  0.75381800  0.85208000  0.61807400  1
  O  O4  1  0.74233500  0.16509800  0.87920300  1
  O  O5  1  0.90237500  0.41522800  0.61874800  1
  O  O6  1  0.75844300  0.64506200  0.37519800  1
  O  O7  1  0.57922400  0.13585300  0.39032500  1
  O  O8  1  0.60102400  0.85945200  0.12468600  1
  O  O9  1  0.74782600  0.33907000  0.12706400  1
  O  O10  1  0.59347100  0.64004900  0.86745300  1
  O  O11  1  0.42579000  0.11338900  0.89492500  1
  O  O12  1  0.39952600  0.89991800  0.62281700  1
  O  O13  1  0.57276300  0.36748700  0.61697600  1
  O  O14  1  0.25381800  0.14792000  0.38192600  1
  O  O15  1  0.40237500  0.58477200  0.38125200  1
  O  O16  1  0.42534500  0.40489000  0.10509900  1
  O  O17  1  0.24233500  0.83490200  0.12079700  1
  O  O18  1  0.10102400  0.14054800  0.87531400  1
  O  O19  1  0.25844300  0.35493800  0.62480200  1
  O  O20  1  0.24782600  0.66093000  0.87293600  1
  O  O21  1  0.07922400  0.86414700  0.60967500  1
  O  O22  1  0.07276300  0.63251300  0.38302400  1
  O  O23  1  0.09347100  0.35995100  0.13254700  1
loop_
_geom_bond_atom_site_label_1
_geom_bond_atom_site_label_2
_geom_bond_distance
_geom_bond_site_symmetry_2
Li0 O22 2.047111 1_655
Li0 O6 2.059223 1_555
Li0 O0 2.113970 1_555
Li0 O23 2.203798 1_655
Li0 O9 2.251949 1_555
Li0 O1 2.352061 1_555
Li1 O13 2.044321 1_555
Li1 O10 2.066678 1_545
Li1 O3 2.162346 1_545
Li1 O4 2.180221 1_555
Li1 O12 2.190513 1_545
Li1 O11 2.229911 1_555
Li2 O7 2.073071 1_565
Li2 O3 2.119187 1_555
Li2 O13 2.120111 1_555
Li2 O6 2.143146 1_555
Li2 O15 2.179528 1_555
Li2 O12 2.236412 1_555
Li3 O7 2.062874 1_555
Li3 O15 2.095800 1_555
Li3 O8 2.101170 1_555
Li3 O16 2.163062 1_555
Li3 O6 2.183638 1_555
Li3 O9 2.226634 1_555
Li4 O13 2.047111 1_555
Li4 O19 2.059223 1_555
Li4 O12 2.113970 1_555
Li4 O10 2.203798 1_555
Li4 O20 2.251949 1_555
Li4 O11 2.352061 1_555
Li5 O21 2.073071 1_545
Li5 O14 2.119187 1_555
Li5 O22 2.120111 1_555
Li5 O19 2.143146 1_555
Li5 O5 2.179528 1_455
Li5 O0 2.236412 1_455
Li6 O22 2.044321 1_555
Li6 O23 2.066678 1_565
Li6 O14 2.162346 1_565
Li6 O17 2.180221 1_555
Li6 O0 2.190513 1_465
Li6 O1 2.229911 1_455
Li7 O21 2.062874 1_555
Li7 O5 2.095800 1_455
Li7 O18 2.101170 1_555
Li7 O2 2.163062 1_455
Li7 O19 2.183638 1_555
Li7 O20 2.226634 1_555
Mn0 O2 1.923784 1_555
Mn0 O1 1.943957 1_546
Mn0 O18 2.091922 1_655
Mn0 O4 2.105314 1_555
Mn0 O23 2.146796 1_656
Mn0 O9 2.158246 1_556
Mn1 O5 1.930058 1_555
Mn1 O21 1.936286 1_655
Mn1 O0 1.972353 1_565
Mn1 O22 1.977696 1_655
Mn1 O3 1.989585 1_555
Mn1 O6 2.036809 1_555
Mn2 O6 1.939635 1_555
Mn2 O0 1.999688 1_565
Mn2 O8 2.009930 1_555
Mn2 O9 2.031695 1_565
Mn2 O7 2.129575 1_565
Mn2 O1 2.402609 1_555
Mn3 O3 1.931210 1_555
Mn3 O5 1.972351 1_555
Mn3 O10 2.029141 1_555
Mn3 O4 2.058160 1_555
Mn3 O13 2.192197 1_555
Mn3 O2 2.293468 1_555
Mn4 O4 1.972995 1_554
Mn4 O16 1.980661 1_555
Mn4 O11 1.989420 1_554
Mn4 O9 1.999991 1_555
Mn4 O8 2.172631 1_545
Mn4 O10 2.194412 1_554
Mn5 O15 1.930058 1_555
Mn5 O7 1.936286 1_555
Mn5 O12 1.972353 1_545
Mn5 O13 1.977696 1_555
Mn5 O14 1.989585 1_555
Mn5 O19 2.036809 1_555
Mn6 O16 1.923784 1_555
Mn6 O11 1.943957 1_564
Mn6 O8 2.091922 1_555
Mn6 O17 2.105314 1_555
Mn6 O10 2.146796 1_554
Mn6 O20 2.158246 1_554
Mn7 O19 1.939635 1_555
Mn7 O12 1.999688 1_545
Mn7 O18 2.009930 1_555
Mn7 O20 2.031695 1_545
Mn7 O21 2.129575 1_545
Mn7 O11 2.402609 1_555
Mn8 O14 1.931210 1_555
Mn8 O15 1.972351 1_555
Mn8 O23 2.029141 1_555
Mn8 O17 2.058160 1_555
Mn8 O22 2.192197 1_555
Mn8 O16 2.293468 1_555
Mn9 O17 1.972995 1_556
Mn9 O2 1.980661 1_455
Mn9 O1 1.989420 1_456
Mn9 O20 1.999991 1_555
Mn9 O18 2.172631 1_565
Mn9 O23 2.194412 1_556
Ni0 O7 2.025316 1_555
Ni0 O13 2.060872 1_555
Ni0 O5 2.068299 1_555
Ni0 O0 2.097043 1_555
Ni0 O3 2.141173 1_545
Ni0 O6 2.221273 1_555
Ni1 O8 2.022152 1_556
Ni1 O2 2.060070 1_555
Ni1 O1 2.060240 1_556
Ni1 O10 2.066290 1_555
Ni1 O4 2.222032 1_565
Ni1 O9 2.303380 1_556
Ni2 O18 2.022152 1_554
Ni2 O16 2.060070 1_555
Ni2 O11 2.060240 1_554
Ni2 O23 2.066290 1_555
Ni2 O17 2.222032 1_545
Ni2 O20 2.303380 1_554
Ni3 O21 2.025316 1_555
Ni3 O22 2.060872 1_555
Ni3 O15 2.068299 1_555
Ni3 O12 2.097043 1_555
Ni3 O14 2.141173 1_565
Ni3 O19 2.221273 1_555
