# generated using pymatgen
data_Ag7Sb9O25
_symmetry_space_group_name_H-M   'P 1'
_cell_length_a   12.78486144
_cell_length_b   12.78486144
_cell_length_c   12.78486184
_cell_angle_alpha   33.35626494
_cell_angle_beta   33.35626494
_cell_angle_gamma   33.35626972
_symmetry_Int_Tables_number   1
_chemical_formula_structural   Ag7Sb9O25
_chemical_formula_sum   'Ag7 Sb9 O25'
_cell_volume   562.55602337
_cell_formula_units_Z   1
loop_
 _symmetry_equiv_pos_site_id
 _symmetry_equiv_pos_as_xyz
  1  'x, y, z'
loop_
 _atom_site_type_symbol
 _atom_site_label
 _atom_site_symmetry_multiplicity
 _atom_site_fract_x
 _atom_site_fract_y
 _atom_site_fract_z
 _atom_site_occupancy
  Ag  Ag0  1  0.25596900  0.74670600  0.74670600  1
  Ag  Ag1  1  0.74670600  0.25596900  0.74670600  1
  Ag  Ag2  1  0.99985400  0.99985400  0.99985400  1
  Ag  Ag3  1  0.24835000  0.75065500  0.24835000  1
  Ag  Ag4  1  0.24835000  0.24835000  0.75065500  1
  Ag  Ag5  1  0.75065500  0.24835000  0.24835000  1
  Ag  Ag6  1  0.74670600  0.74670600  0.25596900  1
  Sb  Sb0  1  0.48617300  0.48617300  0.48617300  1
  Sb  Sb1  1  0.49968900  0.49968900  0.99933100  1
  Sb  Sb2  1  0.99666800  0.99666800  0.50757600  1
  Sb  Sb3  1  0.50757600  0.99666800  0.99666800  1
  Sb  Sb4  1  0.99666800  0.50757600  0.99666800  1
  Sb  Sb5  1  0.24953100  0.24953100  0.24953100  1
  Sb  Sb6  1  0.49968900  0.99933100  0.49968900  1
  Sb  Sb7  1  0.99933100  0.49968900  0.49968900  1
  Sb  Sb8  1  0.74982800  0.74982800  0.74982800  1
  O  O0  1  0.08413800  0.49431700  0.08413800  1
  O  O1  1  0.21944700  0.65834900  0.65834900  1
  O  O2  1  0.41196000  0.41196000  0.01215400  1
  O  O3  1  0.21111600  0.61381600  0.21111600  1
  O  O4  1  0.65834900  0.21944700  0.65834900  1
  O  O5  1  0.98722700  0.58691300  0.58691300  1
  O  O6  1  0.08413800  0.08413800  0.49431700  1
  O  O7  1  0.78700100  0.78700100  0.38619400  1
  O  O8  1  0.27803600  0.27803600  0.89935100  1
  O  O9  1  0.49431700  0.08413800  0.08413800  1
  O  O10  1  0.38619400  0.78700100  0.78700100  1
  O  O11  1  0.41196000  0.01215400  0.41196000  1
  O  O12  1  0.58691300  0.98722700  0.58691300  1
  O  O13  1  0.21111600  0.21111600  0.61381600  1
  O  O14  1  0.61381600  0.21111600  0.21111600  1
  O  O15  1  0.91148100  0.91148100  0.51557600  1
  O  O16  1  0.84466200  0.84466200  0.84466200  1
  O  O17  1  0.51557600  0.91148100  0.91148100  1
  O  O18  1  0.65834900  0.65834900  0.21944700  1
  O  O19  1  0.01215400  0.41196000  0.41196000  1
  O  O20  1  0.78700100  0.38619400  0.78700100  1
  O  O21  1  0.27803600  0.89935100  0.27803600  1
  O  O22  1  0.89935100  0.27803600  0.27803600  1
  O  O23  1  0.58691300  0.58691300  0.98722700  1
  O  O24  1  0.91148100  0.51557600  0.91148100  1
loop_
_geom_bond_atom_site_label_1
_geom_bond_atom_site_label_2
_geom_bond_distance
_geom_bond_site_symmetry_2
Ag0 O11 2.568216 1_565
Ag0 O2 2.568217 1_556
Ag0 O0 2.569890 1_556
Ag0 O6 2.569890 1_565
Ag0 O10 2.571326 1_555
Ag0 O1 2.581502 1_555
Ag1 O19 2.568216 1_655
Ag1 O2 2.568217 1_556
Ag1 O9 2.569890 1_556
Ag1 O6 2.569890 1_655
Ag1 O20 2.571326 1_555
Ag1 O4 2.581502 1_555
Ag2 O13 2.568635 1_665
Ag2 O3 2.568636 1_656
Ag2 O14 2.568636 1_566
Ag2 O7 2.582698 1_556
Ag2 O10 2.582699 1_655
Ag2 O20 2.582699 1_565
Ag3 O21 2.559953 1_555
Ag3 O5 2.580912 1_455
Ag3 O23 2.580913 1_554
Ag3 O3 2.583574 1_555
Ag3 O17 2.609581 1_554
Ag3 O15 2.609581 1_455
Ag3 Sb0 3.319201 1_555
Ag4 O8 2.559953 1_555
Ag4 O5 2.580913 1_455
Ag4 O12 2.580913 1_545
Ag4 O13 2.583574 1_555
Ag4 O24 2.609581 1_455
Ag4 O17 2.609581 1_545
Ag4 Sb0 3.319201 1_555
Ag5 O22 2.559953 1_555
Ag5 O12 2.580912 1_545
Ag5 O23 2.580913 1_554
Ag5 O14 2.583574 1_555
Ag5 O24 2.609581 1_554
Ag5 O15 2.609581 1_545
Ag5 Sb0 3.319201 1_555
Ag6 O11 2.568217 1_565
Ag6 O19 2.568217 1_655
Ag6 O0 2.569890 1_655
Ag6 O9 2.569890 1_565
Ag6 O7 2.571326 1_555
Ag6 O18 2.581502 1_555
O0 Sb4 1.996413 1_454
O0 Sb5 2.023924 1_555
O0 O2 2.706413 1_555
O0 O19 2.706413 1_555
O1 Sb0 2.081990 1_555
O1 Sb4 2.280318 1_455
O1 Sb2 2.280319 1_455
O1 O16 2.377412 1_455
O1 O8 2.537807 1_555
O1 O21 2.537807 1_555
O2 Sb5 1.995703 1_555
O2 Sb1 2.007497 1_554
O2 O20 2.696944 1_554
O2 O9 2.706413 1_555
O3 Sb7 1.997748 1_455
O3 Sb1 1.997749 1_554
O3 O7 2.694755 1_455
O3 O5 2.702805 1_455
O4 Sb0 2.081990 1_555
O4 Sb3 2.280318 1_545
O4 Sb2 2.280319 1_545
O4 O8 2.537807 1_555
O5 Sb7 2.002971 1_555
O5 Sb8 2.003607 1_555
O6 Sb2 1.996413 1_445
O6 Sb5 2.023923 1_555
O7 Sb6 1.996486 1_555
O7 Sb7 1.996486 1_555
O8 Sb4 2.021849 1_455
O8 Sb3 2.021849 1_545
O8 Sb0 2.632662 1_555
O9 Sb3 1.996413 1_544
O9 Sb5 2.023924 1_555
O10 Sb6 1.996485 1_555
O10 Sb1 1.996486 1_555
O10 O3 2.694755 1_556
O10 O13 2.694755 1_565
O10 O2 2.696944 1_556
O10 O11 2.696944 1_565
O11 Sb5 1.995703 1_555
O11 Sb6 2.007497 1_545
O11 O7 2.696944 1_545
O11 O6 2.706413 1_555
O11 O9 2.706413 1_555
O12 Sb6 2.002971 1_555
O12 Sb8 2.003607 1_555
O12 O14 2.702805 1_565
O12 O13 2.702805 1_565
O12 O15 2.725569 1_555
O12 O17 2.725569 1_555
O13 Sb7 1.997749 1_455
O13 Sb6 1.997749 1_545
O13 O20 2.694755 1_455
O13 O5 2.702805 1_455
O14 Sb6 1.997748 1_545
O14 Sb1 1.997749 1_554
O14 O20 2.694755 1_554
O14 O7 2.694755 1_545
O14 O23 2.702805 1_554
O15 Sb8 1.991862 1_555
O15 Sb2 1.998021 1_555
O15 O21 2.646949 1_655
O15 O22 2.646949 1_565
O15 O5 2.725569 1_555
O16 Sb2 2.110248 1_555
O16 Sb3 2.110248 1_555
O16 Sb4 2.110248 1_555
O16 O18 2.377412 1_556
O16 O4 2.377412 1_565
O17 Sb8 1.991862 1_555
O17 Sb3 1.998021 1_555
O17 O21 2.646950 1_556
O17 O8 2.646950 1_565
O17 O23 2.725569 1_555
O18 Sb0 2.081990 1_555
O18 Sb3 2.280319 1_554
O18 Sb4 2.280319 1_554
O18 O22 2.537807 1_555
O18 O21 2.537807 1_555
O19 Sb5 1.995703 1_555
O19 Sb7 2.007497 1_455
O19 O20 2.696944 1_455
O19 O7 2.696944 1_455
O19 O6 2.706413 1_555
O20 Sb7 1.996485 1_555
O20 Sb1 1.996486 1_555
O21 Sb3 2.021848 1_554
O21 Sb2 2.021849 1_455
O21 Sb0 2.632663 1_555
O21 O8 2.778935 1_564
O21 O22 2.778935 1_465
O22 Sb4 2.021848 1_554
O22 Sb2 2.021849 1_545
O22 O4 2.537807 1_555
O22 Sb0 2.632663 1_555
O22 O24 2.646950 1_554
O22 O8 2.778935 1_654
O23 Sb1 2.002971 1_555
O23 Sb8 2.003607 1_555
O23 O3 2.702805 1_556
O23 O24 2.725569 1_555
O24 Sb8 1.991862 1_555
O24 Sb4 1.998021 1_555
O24 O8 2.646950 1_655
O24 O5 2.725569 1_555
