# generated using pymatgen
data_Li5Cu2Ni5O12
_symmetry_space_group_name_H-M   'P 1'
_cell_length_a   5.04422977
_cell_length_b   5.04422977
_cell_length_c   9.63413135
_cell_angle_alpha   86.17171423
_cell_angle_beta   86.17171423
_cell_angle_gamma   117.38252556
_symmetry_Int_Tables_number   1
_chemical_formula_structural   Li5Cu2Ni5O12
_chemical_formula_sum   'Li5 Cu2 Ni5 O12'
_cell_volume   215.86338627
_cell_formula_units_Z   1
loop_
 _symmetry_equiv_pos_site_id
 _symmetry_equiv_pos_as_xyz
  1  'x, y, z'
loop_
 _atom_site_type_symbol
 _atom_site_label
 _atom_site_symmetry_multiplicity
 _atom_site_fract_x
 _atom_site_fract_y
 _atom_site_fract_z
 _atom_site_occupancy
  Li  Li0  1  0.83727600  0.65259600  0.25595900  1
  Li  Li1  1  0.66125700  0.84064000  0.74580700  1
  Li  Li2  1  0.34740400  0.16272400  0.74404100  1
  Li  Li3  1  0.15936000  0.33874300  0.25419300  1
  Li  Li4  1  0.08031200  0.91968800  0.50000000  1
  Cu  Cu0  1  0.73967000  0.26033000  0.50000000  1
  Cu  Cu1  1  0.25645600  0.74354400  0.00000000  1
  Ni  Ni0  1  0.91865400  0.08134600  0.00000000  1
  Ni  Ni1  1  0.00147700  0.49804200  0.74716600  1
  Ni  Ni2  1  0.50195800  0.99852300  0.25283400  1
  Ni  Ni3  1  0.59183700  0.40816300  0.00000000  1
  Ni  Ni4  1  0.41003300  0.58996700  0.50000000  1
  O  O0  1  0.01452500  0.22803900  0.61419400  1
  O  O1  1  0.77196100  0.98547500  0.38580600  1
  O  O2  1  0.83105800  0.32304200  0.14113000  1
  O  O3  1  0.67695800  0.16894200  0.85887000  1
  O  O4  1  0.68156400  0.52289300  0.61318700  1
  O  O5  1  0.47710700  0.31843600  0.38681300  1
  O  O6  1  0.53682400  0.71599900  0.11079200  1
  O  O7  1  0.28400100  0.46317600  0.88920800  1
  O  O8  1  0.32859100  0.81545200  0.63188700  1
  O  O9  1  0.18454800  0.67140900  0.36811300  1
  O  O10  1  0.22544900  0.01828100  0.11591200  1
  O  O11  1  0.98171900  0.77455100  0.88408800  1
loop_
_geom_bond_atom_site_label_1
_geom_bond_atom_site_label_2
_geom_bond_distance
_geom_bond_site_symmetry_2
Li0 O2 2.047064 1_555
Li0 O5 2.079577 1_555
Li0 O9 2.087713 1_655
Li0 O6 2.241495 1_555
Li0 O10 2.247093 1_665
Li0 O1 2.286311 1_555
Li1 O3 2.016669 1_565
Li1 O8 2.026069 1_555
Li1 O4 2.149160 1_555
Li1 O0 2.183136 1_665
Li1 O7 2.262742 1_555
Li1 O11 2.285370 1_555
Li2 O3 2.047064 1_555
Li2 O4 2.079577 1_555
Li2 O8 2.087713 1_545
Li2 O7 2.241495 1_555
Li2 O11 2.247093 1_445
Li2 O0 2.286311 1_555
Li3 O2 2.016669 1_455
Li3 O9 2.026069 1_555
Li3 O5 2.149160 1_555
Li3 O1 2.183136 1_445
Li3 O6 2.262742 1_555
Li3 O10 2.285370 1_555
Li4 O8 2.046549 1_555
Li4 O9 2.046549 1_555
Li4 O0 2.096248 1_565
Li4 O1 2.096248 1_455
Li4 O4 2.225607 1_455
Li4 O5 2.225607 1_565
Cu0 O4 1.880524 1_555
Cu0 O5 1.880524 1_555
Cu0 O0 1.883229 1_655
Cu0 O1 1.883229 1_545
Cu0 O9 2.436622 1_655
Cu0 O8 2.436622 1_545
Cu1 O7 1.876489 1_554
Cu1 O6 1.876489 1_555
Cu1 O11 1.890704 1_454
Cu1 O10 1.890704 1_565
Cu1 O2 2.447621 1_455
Cu1 O3 2.447621 1_564
Ni0 O3 2.041312 1_554
Ni0 O2 2.041312 1_555
Ni0 O10 2.092679 1_655
Ni0 O11 2.092679 1_544
Ni0 O7 2.107838 1_654
Ni0 O6 2.107838 1_545
Ni1 O8 1.899286 1_555
Ni1 O3 1.902653 1_455
Ni1 O0 1.950533 1_555
Ni1 O11 2.012813 1_455
Ni1 O7 2.096038 1_555
Ni1 O4 2.174509 1_455
Ni2 O9 1.899286 1_555
Ni2 O2 1.902653 1_565
Ni2 O1 1.950533 1_555
Ni2 O10 2.012813 1_565
Ni2 O6 2.096038 1_555
Ni2 O5 2.174509 1_565
Ni3 O2 2.026539 1_555
Ni3 O3 2.026539 1_554
Ni3 O6 2.050762 1_555
Ni3 O7 2.050762 1_554
Ni3 O11 2.148997 1_554
Ni3 O10 2.148997 1_555
Ni4 O8 1.905255 1_555
Ni4 O9 1.905255 1_555
Ni4 O4 1.938039 1_555
Ni4 O5 1.938039 1_555
Ni4 O0 2.147529 1_555
Ni4 O1 2.147529 1_555
