# generated using pymatgen
data_TbNiO3
_symmetry_space_group_name_H-M   'P 1'
_cell_length_a   5.24119402
_cell_length_b   5.24119402
_cell_length_c   5.24119434
_cell_angle_alpha   62.82157720
_cell_angle_beta   62.82157720
_cell_angle_gamma   62.82158013
_symmetry_Int_Tables_number   1
_chemical_formula_structural   TbNiO3
_chemical_formula_sum   'Tb2 Ni2 O6'
_cell_volume   108.19253638
_cell_formula_units_Z   2
loop_
 _symmetry_equiv_pos_site_id
 _symmetry_equiv_pos_as_xyz
  1  'x, y, z'
loop_
 _atom_site_type_symbol
 _atom_site_label
 _atom_site_symmetry_multiplicity
 _atom_site_fract_x
 _atom_site_fract_y
 _atom_site_fract_z
 _atom_site_occupancy
  Tb  Tb0  1  0.25000000  0.25000000  0.25000000  1
  Tb  Tb1  1  0.75000000  0.75000000  0.75000000  1
  Ni  Ni0  1  0.00000000  0.00000000  0.00000000  1
  Ni  Ni1  1  0.50000000  0.50000000  0.50000000  1
  O  O0  1  0.75000000  0.16382600  0.33617400  1
  O  O1  1  0.66382600  0.25000000  0.83617400  1
  O  O2  1  0.83617400  0.66382600  0.25000000  1
  O  O3  1  0.16382600  0.33617400  0.75000000  1
  O  O4  1  0.33617400  0.75000000  0.16382600  1
  O  O5  1  0.25000000  0.83617400  0.66382600  1
loop_
_geom_bond_atom_site_label_1
_geom_bond_atom_site_label_2
_geom_bond_distance
_geom_bond_site_symmetry_2
Ni0 O3 1.950349 1_554
Ni0 O2 1.950349 1_445
Ni0 O4 1.950349 1_545
Ni0 O1 1.950349 1_454
Ni0 O0 1.950349 1_455
Ni0 O5 1.950349 1_544
Ni1 O2 1.950349 1_555
Ni1 O3 1.950349 1_555
Ni1 O5 1.950349 1_555
Ni1 O0 1.950349 1_555
Ni1 O1 1.950349 1_555
Ni1 O4 1.950349 1_555
O0 Tb1 2.260777 1_545
O0 Tb0 2.662548 1_655
O0 Tb0 2.662548 1_555
O1 Tb0 2.260777 1_556
O1 Tb1 2.662548 1_555
O1 Tb1 2.662548 1_545
O2 Tb0 2.260777 1_655
O2 Tb1 2.662548 1_554
O2 Tb1 2.662548 1_555
O3 Tb1 2.260777 1_455
O3 Tb0 2.662548 1_556
O3 Tb0 2.662548 1_555
O4 Tb1 2.260777 1_554
O4 Tb0 2.662548 1_555
O4 Tb0 2.662548 1_565
O5 Tb0 2.260777 1_565
O5 Tb1 2.662548 1_455
O5 Tb1 2.662548 1_555
