# generated using pymatgen
data_SrLi4La15(CoO8)4
_symmetry_space_group_name_H-M   'P 1'
_cell_length_a   8.79953208
_cell_length_b   10.69213100
_cell_length_c   8.79953208
_cell_angle_alpha   72.31466061
_cell_angle_beta   94.34710465
_cell_angle_gamma   72.31466061
_symmetry_Int_Tables_number   1
_chemical_formula_structural   SrLi4La15(CoO8)4
_chemical_formula_sum   'Sr1 Li4 La15 Co4 O32'
_cell_volume   738.50743601
_cell_formula_units_Z   1
loop_
 _symmetry_equiv_pos_site_id
 _symmetry_equiv_pos_as_xyz
  1  'x, y, z'
loop_
 _atom_site_type_symbol
 _atom_site_label
 _atom_site_symmetry_multiplicity
 _atom_site_fract_x
 _atom_site_fract_y
 _atom_site_fract_z
 _atom_site_occupancy
  Sr  Sr0  1  0.38987600  0.12500000  0.11012400  1
  Li  Li0  1  0.50062200  0.50063400  0.49876200  1
  Li  Li1  1  0.50058700  0.00015900  0.49688200  1
  Li  Li2  1  0.00123800  0.74936600  0.99937800  1
  Li  Li3  1  0.00311800  0.24984100  0.99941300  1
  La  La0  1  0.88745100  0.87305400  0.61188800  1
  La  La1  1  0.61195900  0.37789400  0.88683500  1
  La  La2  1  0.61316500  0.87210600  0.88804100  1
  La  La3  1  0.88811200  0.37694600  0.61254900  1
  La  La4  1  0.63425000  0.25017400  0.35890900  1
  La  La5  1  0.13995000  0.49751800  0.86378700  1
  La  La6  1  0.14109100  0.99982600  0.86575000  1
  La  La7  1  0.63621300  0.75248200  0.36005000  1
  La  La8  1  0.86147900  0.49967100  0.13907500  1
  La  La9  1  0.35891800  0.25129200  0.63543700  1
  La  La10  1  0.36092500  0.75032900  0.63852100  1
  La  La11  1  0.86456300  0.99870800  0.14108200  1
  La  La12  1  0.38760500  0.62500000  0.11239500  1
  La  La13  1  0.11280900  0.62500000  0.38719100  1
  La  La14  1  0.11716500  0.12500000  0.38283500  1
  Co  Co0  1  0.75029300  0.12500000  0.74970700  1
  Co  Co1  1  0.74980300  0.62500000  0.75019700  1
  Co  Co2  1  0.24906400  0.37463800  0.25004900  1
  Co  Co3  1  0.24995100  0.87536200  0.25093600  1
  O  O0  1  0.87119000  0.18673300  0.87080600  1
  O  O1  1  0.87205500  0.68656200  0.87210500  1
  O  O2  1  0.87210900  0.94263500  0.87057600  1
  O  O3  1  0.87117700  0.44099200  0.87251800  1
  O  O4  1  0.92969900  0.62500000  0.57030100  1
  O  O5  1  0.91133000  0.12500000  0.58867000  1
  O  O6  1  0.59504500  0.12500000  0.90495500  1
  O  O7  1  0.57148200  0.62500000  0.92851800  1
  O  O8  1  0.62942400  0.30736500  0.62789100  1
  O  O9  1  0.62919400  0.06326700  0.62881000  1
  O  O10  1  0.62789500  0.56343800  0.62794500  1
  O  O11  1  0.62748200  0.80900800  0.62882300  1
  O  O12  1  0.32039000  0.49872300  0.68196200  1
  O  O13  1  0.81803800  0.75127700  0.17961000  1
  O  O14  1  0.31613000  0.00137900  0.68100300  1
  O  O15  1  0.81899700  0.24862100  0.18387000  1
  O  O16  1  0.18066400  0.74957800  0.82008600  1
  O  O17  1  0.68895400  0.99603700  0.32560600  1
  O  O18  1  0.17439400  0.25396300  0.81104600  1
  O  O19  1  0.67991400  0.50042200  0.31933600  1
  O  O20  1  0.37115500  0.43674000  0.37261700  1
  O  O21  1  0.37139100  0.69126000  0.37254800  1
  O  O22  1  0.36938900  0.93587600  0.37619800  1
  O  O23  1  0.36907300  0.19149000  0.37626800  1
  O  O24  1  0.42982900  0.37952400  0.06965600  1
  O  O25  1  0.43034400  0.87047600  0.07017100  1
  O  O26  1  0.07178500  0.87586500  0.43110100  1
  O  O27  1  0.06889900  0.37413500  0.42821500  1
  O  O28  1  0.12380200  0.31412400  0.13061100  1
  O  O29  1  0.12745200  0.55874000  0.12860900  1
  O  O30  1  0.12738300  0.81326000  0.12884500  1
  O  O31  1  0.12373200  0.05851000  0.13092700  1
loop_
_geom_bond_atom_site_label_1
_geom_bond_atom_site_label_2
_geom_bond_distance
_geom_bond_site_symmetry_2
Li0 O21 1.925056 1_555
Li0 O10 1.930056 1_555
Li0 O20 1.933558 1_555
Li0 O8 1.949633 1_555
Li0 O19 2.315067 1_555
Li0 O12 2.345575 1_555
Li1 O22 1.916438 1_545
Li1 O23 1.925341 1_555
Li1 O11 1.935747 1_545
Li1 O9 1.955614 1_555
Li1 O17 2.322837 1_545
Li1 O14 2.378731 1_555
Li2 O29 1.925056 1_556
Li2 O1 1.930056 1_455
Li2 O30 1.933558 1_556
Li2 O2 1.949633 1_455
Li2 O16 2.315067 1_555
Li2 O13 2.345575 1_456
Li3 O28 1.916438 1_556
Li3 O31 1.925341 1_556
Li3 O3 1.935747 1_455
Li3 O0 1.955614 1_455
Li3 O18 2.322837 1_555
Li3 O15 2.378731 1_456
La0 O26 2.356796 1_655
La0 O11 2.581811 1_555
La0 O1 2.583518 1_555
La0 O9 2.598085 1_565
La0 O2 2.601523 1_555
La0 O17 2.655357 1_555
La0 O4 2.705121 1_555
La0 O5 2.712691 1_565
La0 O16 2.738743 1_655
La1 O24 2.355373 1_556
La1 O3 2.569219 1_555
La1 O10 2.572292 1_555
La1 O0 2.606170 1_555
La1 O8 2.609774 1_555
La1 O7 2.697940 1_555
La1 O6 2.710207 1_555
La1 O12 2.715066 1_555
La1 O15 2.759433 1_556
La2 O25 2.355373 1_556
La2 O11 2.569219 1_555
La2 O1 2.572292 1_555
La2 O9 2.606170 1_565
La2 O2 2.609774 1_555
La2 O7 2.697940 1_555
La2 O6 2.710207 1_565
La2 O13 2.715066 1_556
La2 O14 2.759433 1_565
La3 O27 2.356796 1_655
La3 O3 2.581811 1_555
La3 O10 2.583518 1_555
La3 O0 2.598085 1_555
La3 O8 2.601523 1_555
La3 O18 2.655357 1_655
La3 O4 2.705121 1_555
La3 O5 2.712691 1_555
La3 O19 2.738743 1_555
La4 O15 2.322558 1_555
La4 O20 2.595402 1_555
La4 O23 2.597561 1_555
La4 O9 2.612021 1_555
La4 O8 2.618561 1_555
La4 O24 2.698622 1_555
La4 O17 2.722427 1_545
La4 O5 2.729392 1_555
La4 O19 2.747791 1_555
La5 O12 2.337986 1_555
La5 O29 2.606309 1_556
La5 O28 2.607787 1_556
La5 O3 2.613921 1_455
La5 O1 2.620889 1_455
La5 O24 2.708428 1_556
La5 O18 2.713811 1_555
La5 O16 2.741791 1_555
La5 O4 2.748646 1_455
La6 O14 2.322558 1_565
La6 O30 2.595402 1_556
La6 O31 2.597561 1_566
La6 O0 2.612021 1_465
La6 O2 2.618561 1_455
La6 O25 2.698622 1_556
La6 O18 2.722427 1_565
La6 O5 2.729392 1_465
La6 O16 2.747791 1_555
La7 O13 2.337986 1_555
La7 O21 2.606309 1_555
La7 O22 2.607787 1_555
La7 O11 2.613921 1_555
La7 O10 2.620889 1_555
La7 O25 2.708428 1_555
La7 O17 2.713811 1_555
La7 O19 2.741791 1_555
La7 O4 2.748646 1_555
La8 O19 2.335138 1_555
La8 O28 2.569664 1_655
La8 O29 2.603930 1_655
La8 O3 2.606643 1_554
La8 O1 2.610452 1_554
La8 O27 2.709062 1_655
La8 O7 2.727185 1_554
La8 O13 2.736681 1_555
La8 O15 2.736697 1_555
La9 O18 2.324692 1_555
La9 O23 2.549504 1_555
La9 O20 2.583232 1_555
La9 O9 2.624617 1_555
La9 O8 2.626149 1_555
La9 O27 2.714002 1_555
La9 O6 2.714372 1_555
La9 O12 2.723181 1_555
La9 O14 2.725044 1_555
La10 O16 2.335138 1_555
La10 O22 2.569664 1_555
La10 O21 2.603930 1_555
La10 O11 2.606643 1_555
La10 O10 2.610452 1_555
La10 O26 2.709062 1_555
La10 O7 2.727185 1_555
La10 O12 2.736681 1_555
La10 O14 2.736697 1_565
La11 O17 2.324692 1_555
La11 O31 2.549504 1_665
La11 O30 2.583232 1_655
La11 O0 2.624617 1_564
La11 O2 2.626149 1_554
La11 O26 2.714002 1_655
La11 O6 2.714372 1_564
La11 O13 2.723181 1_555
La11 O15 2.725044 1_565
La12 O7 2.373381 1_554
La12 O21 2.595440 1_555
La12 O29 2.595440 1_555
La12 O30 2.596705 1_555
La12 O20 2.596705 1_555
La12 O25 2.682675 1_555
La12 O24 2.682675 1_555
La12 O16 2.727801 1_554
La12 O19 2.727801 1_555
La13 O4 2.363481 1_455
La13 O20 2.580115 1_555
La13 O30 2.580115 1_555
La13 O29 2.581547 1_555
La13 O21 2.581547 1_555
La13 O26 2.745319 1_555
La13 O27 2.745319 1_555
La13 O13 2.746454 1_455
La13 O12 2.746454 1_555
La14 O31 2.524740 1_555
La14 O23 2.524740 1_555
La14 O28 2.526459 1_555
La14 O22 2.526459 1_545
La14 O5 2.656803 1_455
La14 O27 2.724004 1_555
La14 O26 2.724004 1_545
La14 O15 2.736219 1_455
La14 O14 2.736219 1_555
Co0 O2 1.838332 1_545
Co0 O8 1.838332 1_555
Co0 O0 1.839862 1_555
Co0 O9 1.839862 1_555
Co0 O6 2.003854 1_555
Co0 O5 2.078575 1_555
Co1 O1 1.850831 1_555
Co1 O10 1.850831 1_555
Co1 O11 1.852684 1_555
Co1 O3 1.852684 1_555
Co1 O7 2.301667 1_555
Co1 O4 2.321996 1_555
Co2 O28 1.846360 1_555
Co2 O23 1.851425 1_555
Co2 O29 1.852193 1_555
Co2 O20 1.857755 1_555
Co2 O27 2.312617 1_555
Co2 O24 2.331421 1_555
Co3 O22 1.846360 1_555
Co3 O31 1.851425 1_565
Co3 O21 1.852193 1_555
Co3 O30 1.857755 1_555
Co3 O26 2.312617 1_555
Co3 O25 2.331421 1_555
O6 Sr0 2.648206 1_556
O17 Sr0 2.805867 1_565
O18 Sr0 2.805867 1_556
O22 Sr0 2.648067 1_565
O23 Sr0 2.649738 1_555
O24 Sr0 2.769103 1_555
O25 Sr0 2.769103 1_565
O28 Sr0 2.648067 1_555
O31 Sr0 2.649738 1_555
