# generated using pymatgen
data_Li4CoO4
_symmetry_space_group_name_H-M   'P 1'
_cell_length_a   4.80287200
_cell_length_b   8.82908801
_cell_length_c   8.80159287
_cell_angle_alpha   89.99978861
_cell_angle_beta   90.00092356
_cell_angle_gamma   89.99979363
_symmetry_Int_Tables_number   1
_chemical_formula_structural   Li4CoO4
_chemical_formula_sum   'Li16 Co4 O16'
_cell_volume   373.23136555
_cell_formula_units_Z   4
loop_
 _symmetry_equiv_pos_site_id
 _symmetry_equiv_pos_as_xyz
  1  'x, y, z'
loop_
 _atom_site_type_symbol
 _atom_site_label
 _atom_site_symmetry_multiplicity
 _atom_site_fract_x
 _atom_site_fract_y
 _atom_site_fract_z
 _atom_site_occupancy
  Li  Li0  1  0.75001000  0.50001100  0.44803700  1
  Li  Li1  1  0.75001000  0.00001100  0.94804100  1
  Li  Li2  1  0.75000300  0.50001100  0.05196400  1
  Li  Li3  1  0.75000500  0.00001100  0.55196000  1
  Li  Li4  1  0.25000400  0.30177300  0.74999900  1
  Li  Li5  1  0.25000300  0.80176900  0.24999900  1
  Li  Li6  1  0.25000000  0.69824800  0.75000100  1
  Li  Li7  1  0.25000200  0.19825500  0.25000100  1
  Li  Li8  1  0.18458000  0.25001000  0.99999900  1
  Li  Li9  1  0.18457700  0.75000500  0.49999900  1
  Li  Li10  1  0.68468200  0.25001100  0.99999800  1
  Li  Li11  1  0.68468300  0.75001000  0.50001000  1
  Li  Li12  1  0.31543300  0.75000600  0.99999900  1
  Li  Li13  1  0.31543300  0.25001000  0.50000000  1
  Li  Li14  1  0.81532600  0.75000800  0.99998700  1
  Li  Li15  1  0.81532600  0.25000900  0.50000000  1
  Co  Co0  1  0.25000500  0.00001000  0.74999900  1
  Co  Co1  1  0.75000100  0.00001000  0.24999900  1
  Co  Co2  1  0.25000500  0.50001100  0.24999900  1
  Co  Co3  1  0.75000400  0.50001000  0.75000100  1
  O  O0  1  0.94526700  0.61850400  0.61895900  1
  O  O1  1  0.94527000  0.11850200  0.11895900  1
  O  O2  1  0.44577000  0.36881600  0.13192500  1
  O  O3  1  0.44577900  0.86882000  0.63192600  1
  O  O4  1  0.44577200  0.63120500  0.36807900  1
  O  O5  1  0.44578000  0.13120400  0.86807900  1
  O  O6  1  0.94526700  0.38151200  0.88104600  1
  O  O7  1  0.94526800  0.88151400  0.38104500  1
  O  O8  1  0.05423400  0.63120500  0.13192000  1
  O  O9  1  0.05422600  0.13120300  0.63192200  1
  O  O10  1  0.55474100  0.38151300  0.61895300  1
  O  O11  1  0.55473900  0.88151300  0.11895400  1
  O  O12  1  0.55473900  0.61850500  0.88104300  1
  O  O13  1  0.55473400  0.11850300  0.38104200  1
  O  O14  1  0.05424000  0.36881900  0.36807400  1
  O  O15  1  0.05422700  0.86882000  0.86807400  1
loop_
_geom_bond_atom_site_label_1
_geom_bond_atom_site_label_2
_geom_bond_distance
_geom_bond_site_symmetry_2
Li0 O14 1.993007 1_655
Li0 O4 1.993010 1_555
Li0 O0 2.058425 1_555
Li0 O10 2.058451 1_555
Li0 Li15 2.275895 1_555
Li0 Li11 2.275899 1_555
Li1 O15 1.992968 1_645
Li1 O5 1.992989 1_555
Li1 O1 2.058396 1_556
Li1 O11 2.058436 1_546
Li1 Li14 2.275873 1_545
Li1 Li10 2.275880 1_555
Li2 O8 1.992988 1_655
Li2 O2 1.993030 1_555
Li2 O12 2.058429 1_554
Li2 O6 2.058460 1_554
Li3 O9 1.992962 1_655
Li3 O3 1.993000 1_545
Li3 O13 2.058416 1_555
Li3 O7 2.058429 1_545
Li4 O10 1.992045 1_555
Li4 O6 1.992046 1_455
Li4 O5 2.057221 1_555
Li4 O9 2.057229 1_555
Li4 Li8 2.269223 1_555
Li5 O11 1.992048 1_555
Li5 O7 1.992052 1_455
Li5 O4 2.057173 1_555
Li5 O8 2.057179 1_555
Li5 Li9 2.269226 1_555
Li6 O0 1.991998 1_455
Li6 O12 1.992010 1_555
Li6 O15 2.057223 1_555
Li6 O3 2.057245 1_555
Li6 Li9 2.269218 1_555
Li7 O13 1.992008 1_555
Li7 O1 1.992023 1_455
Li7 O14 2.057147 1_555
Li7 O2 2.057154 1_555
Li7 Li8 2.269214 1_554
Li8 O6 1.940417 1_455
Li8 O1 1.940498 1_456
Li8 O2 2.005550 1_556
Li8 O5 2.005568 1_555
Li9 O7 1.940447 1_455
Li9 O0 1.940461 1_455
Li9 O4 2.005525 1_555
Li9 O3 2.005633 1_555
Li10 O5 1.940360 1_555
Li10 O2 1.940438 1_556
Li10 O6 2.002642 1_555
Li10 O1 2.002708 1_556
Li10 Li2 2.275892 1_556
Li10 Li8 2.400946 1_655
Li10 Li8 2.401926 1_555
Li11 O3 1.940382 1_555
Li11 O4 1.940439 1_555
Li11 O0 2.002625 1_555
Li11 O7 2.002718 1_555
Li11 Li3 2.275873 1_565
Li11 Li9 2.400927 1_655
Li11 Li9 2.401945 1_555
Li12 O12 1.940431 1_555
Li12 O11 1.940443 1_556
Li12 O8 2.005547 1_556
Li12 O15 2.005621 1_555
Li12 Li6 2.269196 1_555
Li12 Li5 2.269230 1_556
Li12 Li14 2.400922 1_555
Li12 Li14 2.401950 1_455
Li13 O10 1.940418 1_555
Li13 O13 1.940458 1_555
Li13 O14 2.005563 1_555
Li13 O9 2.005604 1_555
Li13 Li7 2.269198 1_555
Li13 Li4 2.269220 1_555
Li13 Li15 2.400922 1_555
Li13 Li15 2.401950 1_455
Li14 O15 1.940367 1_655
Li14 O8 1.940422 1_656
Li14 O12 2.002605 1_555
Li14 O11 2.002737 1_556
Li14 Li2 2.275885 1_556
Li15 O9 1.940356 1_655
Li15 O14 1.940463 1_655
Li15 O10 2.002662 1_555
Li15 O13 2.002700 1_555
Li15 Li3 2.275863 1_555
Co0 O3 1.818182 1_545
Co0 O15 1.818201 1_545
Co0 O9 1.818209 1_555
Co0 O5 1.818229 1_555
Co1 O1 1.817780 1_555
Co1 O13 1.817798 1_555
Co1 O11 1.817802 1_545
Co1 O7 1.817806 1_545
Co2 O14 1.818180 1_555
Co2 O2 1.818193 1_555
Co2 O8 1.818205 1_555
Co2 O4 1.818209 1_555
Co3 O0 1.817787 1_555
Co3 O12 1.817798 1_555
Co3 O6 1.817801 1_555
Co3 O10 1.817821 1_555
