# generated using pymatgen
data_Na2Ni4Mo4(HO4)5
_symmetry_space_group_name_H-M   'P 1'
_cell_length_a   5.87071700
_cell_length_b   7.77577143
_cell_length_c   9.22890956
_cell_angle_alpha   80.71253042
_cell_angle_beta   79.61947734
_cell_angle_gamma   87.68148742
_symmetry_Int_Tables_number   1
_chemical_formula_structural   Na2Ni4Mo4(HO4)5
_chemical_formula_sum   'Na2 Ni4 Mo4 H5 O20'
_cell_volume   408.93793608
_cell_formula_units_Z   1
loop_
 _symmetry_equiv_pos_site_id
 _symmetry_equiv_pos_as_xyz
  1  'x, y, z'
loop_
 _atom_site_type_symbol
 _atom_site_label
 _atom_site_symmetry_multiplicity
 _atom_site_fract_x
 _atom_site_fract_y
 _atom_site_fract_z
 _atom_site_occupancy
  Na  Na0  1  0.75290200  0.71729400  0.24907300  1
  Na  Na1  1  0.24709800  0.28270600  0.75092700  1
  Ni  Ni0  1  0.00000000  0.00000000  0.50000000  1
  Ni  Ni1  1  0.21803700  0.71338900  0.79114500  1
  Ni  Ni2  1  0.78196300  0.28661100  0.20885500  1
  Ni  Ni3  1  0.50000000  0.50000000  0.00000000  1
  Mo  Mo0  1  0.79721300  0.63898100  0.65640300  1
  Mo  Mo1  1  0.31043300  0.02592900  0.14635400  1
  Mo  Mo2  1  0.20278700  0.36101900  0.34359700  1
  Mo  Mo3  1  0.68956700  0.97407100  0.85364600  1
  H  H0  1  0.82958000  0.26205000  0.91743400  1
  H  H1  1  0.30557400  0.67767800  0.39095000  1
  H  H2  1  0.00000000  0.50000000  0.00000000  1
  H  H3  1  0.17042000  0.73795000  0.08256600  1
  H  H4  1  0.69442600  0.32232200  0.60905000  1
  O  O0  1  0.28202300  0.85763200  0.43483400  1
  O  O1  1  0.18838500  0.22528000  0.51871000  1
  O  O2  1  0.36510900  0.56605600  0.34607000  1
  O  O3  1  0.81267400  0.43126000  0.01235300  1
  O  O4  1  0.95135000  0.86064600  0.73192000  1
  O  O5  1  0.54240400  0.05182800  0.67836400  1
  O  O6  1  0.60493900  0.86565700  0.04797100  1
  O  O7  1  0.45759600  0.94817200  0.32163600  1
  O  O8  1  0.04865000  0.13935400  0.26808000  1
  O  O9  1  0.63489100  0.43394400  0.65393000  1
  O  O10  1  0.88792200  0.15662500  0.87075300  1
  O  O11  1  0.44794400  0.29180600  0.18961600  1
  O  O12  1  0.91849900  0.45015200  0.31572600  1
  O  O13  1  0.81161500  0.77472000  0.48129000  1
  O  O14  1  0.08150100  0.54984800  0.68427400  1
  O  O15  1  0.55205600  0.70819400  0.81038400  1
  O  O16  1  0.71797700  0.14236800  0.56516600  1
  O  O17  1  0.11207800  0.84337500  0.12924700  1
  O  O18  1  0.39506100  0.13434300  0.95202900  1
  O  O19  1  0.18732600  0.56874000  0.98764700  1
loop_
_geom_bond_atom_site_label_1
_geom_bond_atom_site_label_2
_geom_bond_distance
_geom_bond_site_symmetry_2
Na0 O12 2.297411 1_555
Na0 O6 2.310582 1_555
Na0 O13 2.344923 1_555
Na0 O17 2.367983 1_655
Na0 O7 2.528799 1_555
Na0 O2 2.551413 1_555
Na1 O14 2.297411 1_555
Na1 O18 2.310582 1_555
Na1 O1 2.344923 1_555
Na1 O10 2.367983 1_455
Na1 O5 2.528799 1_555
Na1 O9 2.551413 1_555
Ni0 O0 2.009035 1_545
Ni0 O16 2.009035 1_455
Ni0 O13 2.155155 1_445
Ni0 O1 2.155155 1_555
Ni0 O8 2.212023 1_555
Ni0 O4 2.212023 1_445
Ni1 O19 1.956160 1_555
Ni1 O15 1.998788 1_555
Ni1 O14 2.001156 1_555
Ni1 O4 2.005600 1_455
Ni2 O3 1.956160 1_555
Ni2 O11 1.998788 1_555
Ni2 O12 2.001156 1_555
Ni2 O8 2.005600 1_655
Ni3 O3 1.909073 1_555
Ni3 O19 1.909073 1_554
Ni3 O11 2.170104 1_555
Ni3 O15 2.170104 1_554
Mo0 O13 1.772107 1_555
Mo0 O14 1.826353 1_655
Mo0 O9 1.895520 1_555
Mo0 O15 1.956442 1_555
Mo0 O4 2.239780 1_555
Mo1 O18 1.843531 1_554
Mo1 O17 1.915270 1_545
Mo1 O7 1.968373 1_545
Mo1 O8 1.997441 1_555
Mo1 O6 2.234279 1_545
Mo1 O11 2.367041 1_555
Mo2 O1 1.772107 1_555
Mo2 O12 1.826353 1_455
Mo2 O2 1.895520 1_555
Mo2 O11 1.956442 1_555
Mo2 O8 2.239780 1_555
Mo3 O6 1.843531 1_556
Mo3 O10 1.915270 1_565
Mo3 O5 1.968373 1_565
Mo3 O4 1.997441 1_555
Mo3 O18 2.234279 1_565
Mo3 O15 2.367041 1_555
H0 O10 1.006490 1_555
H0 O3 1.684791 1_556
H1 O2 1.042291 1_555
H1 O0 1.512686 1_555
H2 O19 1.220994 1_554
H2 O3 1.220994 1_455
H3 O17 1.006490 1_555
H3 O19 1.684791 1_554
H4 O9 1.042291 1_555
H4 O16 1.512686 1_555
O0 O7 1.443163 1_555
O10 O4 2.790628 1_545
O11 O8 2.600127 1_555
O15 O4 2.600127 1_555
O16 O5 1.443163 1_555
O17 O8 2.790628 1_565
O18 O6 2.500972 1_546
