# generated using pymatgen
data_Na3CoO3
_symmetry_space_group_name_H-M   'P 1'
_cell_length_a   4.51600600
_cell_length_b   9.06203100
_cell_length_c   9.23015800
_cell_angle_alpha   90.00000000
_cell_angle_beta   90.00000000
_cell_angle_gamma   90.00000000
_symmetry_Int_Tables_number   1
_chemical_formula_structural   Na3CoO3
_chemical_formula_sum   'Na12 Co4 O12'
_cell_volume   377.73670620
_cell_formula_units_Z   4
loop_
 _symmetry_equiv_pos_site_id
 _symmetry_equiv_pos_as_xyz
  1  'x, y, z'
loop_
 _atom_site_type_symbol
 _atom_site_label
 _atom_site_symmetry_multiplicity
 _atom_site_fract_x
 _atom_site_fract_y
 _atom_site_fract_z
 _atom_site_occupancy
  Na  Na0  1  0.00000000  0.12971600  0.62662000  1
  Na  Na1  1  0.50000000  0.12615800  0.37001600  1
  Na  Na2  1  0.50000000  0.14449100  0.85487500  1
  Na  Na3  1  0.00000000  0.35550900  0.35487500  1
  Na  Na4  1  0.00000000  0.37384200  0.87001600  1
  Na  Na5  1  0.50000000  0.37028400  0.12662000  1
  Na  Na6  1  0.50000000  0.62971600  0.87338000  1
  Na  Na7  1  0.00000000  0.62615800  0.12998400  1
  Na  Na8  1  0.00000000  0.64449100  0.64512500  1
  Na  Na9  1  0.50000000  0.85550900  0.14512500  1
  Na  Na10  1  0.50000000  0.87384200  0.62998400  1
  Na  Na11  1  0.00000000  0.87028400  0.37338000  1
  Co  Co0  1  0.00000000  0.11352900  0.11398400  1
  Co  Co1  1  0.50000000  0.38647100  0.61398400  1
  Co  Co2  1  0.50000000  0.61352900  0.38601600  1
  Co  Co3  1  0.00000000  0.88647100  0.88601600  1
  O  O0  1  0.00000000  0.09187400  0.90278500  1
  O  O1  1  0.00000000  0.10568600  0.31156600  1
  O  O2  1  0.50000000  0.19087100  0.60557200  1
  O  O3  1  0.00000000  0.30912900  0.10557200  1
  O  O4  1  0.50000000  0.39431400  0.81156600  1
  O  O5  1  0.50000000  0.40812600  0.40278500  1
  O  O6  1  0.50000000  0.59187400  0.59721500  1
  O  O7  1  0.50000000  0.60568600  0.18843400  1
  O  O8  1  0.00000000  0.69087100  0.89442800  1
  O  O9  1  0.50000000  0.80912900  0.39442800  1
  O  O10  1  0.00000000  0.89431400  0.68843400  1
  O  O11  1  0.00000000  0.90812600  0.09721500  1
loop_
_geom_bond_atom_site_label_1
_geom_bond_atom_site_label_2
_geom_bond_distance
_geom_bond_site_symmetry_2
Na0 O10 2.208203 1_545
Na0 O2 2.333119 1_555
Na0 O2 2.333119 1_455
Na0 O0 2.572010 1_555
Na0 O1 2.916140 1_555
Na0 Na4 3.152984 1_555
Na0 Na3 3.236976 1_555
Na1 O2 2.251917 1_555
Na1 O1 2.328961 1_655
Na1 O1 2.328961 1_555
Na1 O5 2.573042 1_555
Na1 O9 2.881749 1_545
Na1 Na5 3.152984 1_555
Na1 Na9 3.213137 1_545
Na2 O4 2.298926 1_555
Na2 O2 2.339175 1_555
Na2 O0 2.349785 1_555
Na2 O0 2.349785 1_655
Na2 Na5 3.236976 1_556
Na3 O1 2.298926 1_555
Na3 O3 2.339175 1_555
Na3 O5 2.349785 1_555
Na3 O5 2.349785 1_455
Na3 Na7 3.213137 1_555
Na4 O3 2.251917 1_556
Na4 O4 2.328961 1_455
Na4 O4 2.328961 1_555
Na4 O0 2.573042 1_555
Na4 O8 2.881749 1_555
Na4 Na8 3.213137 1_555
Na5 O7 2.208203 1_555
Na5 O3 2.333119 1_555
Na5 O3 2.333119 1_655
Na5 O5 2.572010 1_555
Na5 O4 2.916140 1_554
Na6 O4 2.208203 1_555
Na6 O8 2.333119 1_555
Na6 O8 2.333119 1_655
Na6 O6 2.572010 1_555
Na6 O7 2.916140 1_556
Na6 Na9 3.236976 1_556
Na7 O8 2.251917 1_554
Na7 O7 2.328961 1_555
Na7 O7 2.328961 1_455
Na7 O11 2.573042 1_555
Na7 O3 2.881749 1_555
Na8 O10 2.298926 1_555
Na8 O8 2.339175 1_555
Na8 O6 2.349785 1_455
Na8 O6 2.349785 1_555
Na9 O7 2.298926 1_555
Na9 O9 2.339175 1_555
Na9 O11 2.349785 1_655
Na9 O11 2.349785 1_555
Na10 O9 2.251917 1_555
Na10 O10 2.328961 1_555
Na10 O10 2.328961 1_655
Na10 O6 2.573042 1_555
Na10 O2 2.881749 1_565
Na10 Na6 3.152984 1_555
Na10 Na2 3.213137 1_565
Na11 O1 2.208203 1_565
Na11 O9 2.333119 1_555
Na11 O9 2.333119 1_455
Na11 O11 2.572010 1_555
Na11 O10 2.916140 1_555
Na11 Na7 3.152984 1_555
Na11 Na8 3.236976 1_555
Co0 O3 1.774233 1_555
Co0 O1 1.825097 1_555
Co0 O11 1.867793 1_545
Co0 O0 1.959253 1_554
Co1 O2 1.774233 1_555
Co1 O4 1.825097 1_555
Co1 O6 1.867793 1_555
Co1 O5 1.959253 1_555
Co2 O9 1.774233 1_555
Co2 O7 1.825097 1_555
Co2 O5 1.867793 1_555
Co2 O6 1.959253 1_555
Co3 O8 1.774233 1_555
Co3 O10 1.825097 1_555
Co3 O0 1.867793 1_565
Co3 O11 1.959253 1_556
