# generated using pymatgen
data_SiHg2(OF3)2
_symmetry_space_group_name_H-M   'P 1'
_cell_length_a   9.08096100
_cell_length_b   5.11526500
_cell_length_c   8.53144830
_cell_angle_alpha   67.43227782
_cell_angle_beta   90.00000000
_cell_angle_gamma   90.00000000
_symmetry_Int_Tables_number   1
_chemical_formula_structural   SiHg2(OF3)2
_chemical_formula_sum   'Si2 Hg4 O4 F12'
_cell_volume   365.95280103
_cell_formula_units_Z   2
loop_
 _symmetry_equiv_pos_site_id
 _symmetry_equiv_pos_as_xyz
  1  'x, y, z'
loop_
 _atom_site_type_symbol
 _atom_site_label
 _atom_site_symmetry_multiplicity
 _atom_site_fract_x
 _atom_site_fract_y
 _atom_site_fract_z
 _atom_site_occupancy
  Si  Si0  1  0.00000000  0.00000000  0.50000000  1
  Si  Si1  1  0.50000000  0.00000000  0.00000000  1
  Hg  Hg0  1  0.65628300  0.74145200  0.61713200  1
  Hg  Hg1  1  0.15628300  0.25854800  0.88286800  1
  Hg  Hg2  1  0.34371700  0.25854800  0.38286800  1
  Hg  Hg3  1  0.84371700  0.74145200  0.11713200  1
  O  O0  1  0.02852000  0.60276200  0.03455000  1
  O  O1  1  0.52852000  0.39723800  0.46545000  1
  O  O2  1  0.97148000  0.39723800  0.96545000  1
  O  O3  1  0.47148000  0.60276200  0.53455000  1
  F  F0  1  0.61374600  0.89753000  0.87533000  1
  F  F1  1  0.11374600  0.10247000  0.62467000  1
  F  F2  1  0.38625400  0.10247000  0.12467000  1
  F  F3  1  0.88625400  0.89753000  0.37533000  1
  F  F4  1  0.07811500  0.67951100  0.57817800  1
  F  F5  1  0.57811500  0.32048900  0.92182200  1
  F  F6  1  0.92188500  0.32048900  0.42182200  1
  F  F7  1  0.42188500  0.67951100  0.07817800  1
  F  F8  1  0.86411300  0.88896200  0.66733200  1
  F  F9  1  0.36411300  0.11103800  0.83266800  1
  F  F10  1  0.13588700  0.11103800  0.33266800  1
  F  F11  1  0.63588700  0.88896200  0.16733200  1
loop_
_geom_bond_atom_site_label_1
_geom_bond_atom_site_label_2
_geom_bond_distance
_geom_bond_site_symmetry_2
Hg0 O3 2.049303 1_555
Hg1 O2 2.049303 1_455
Hg2 O1 2.049303 1_555
Hg3 O0 2.049303 1_655
O0 O2 1.482159 1_454
O1 O3 1.482159 1_555
F0 Si1 1.703193 1_566
F0 F5 2.366778 1_565
F0 F9 2.481739 1_565
F0 Hg0 2.643640 1_555
F0 Hg3 2.826684 1_556
F1 Si0 1.703193 1_555
F1 F4 2.366778 1_545
F1 F8 2.481739 1_445
F1 Hg1 2.643640 1_555
F1 Hg2 2.826684 1_555
F2 Si1 1.703193 1_555
F2 F7 2.366778 1_545
F2 Hg2 2.643640 1_555
F2 Hg1 2.826684 1_554
F3 Si0 1.703193 1_665
F3 F6 2.366778 1_565
F3 Hg3 2.643640 1_555
F3 Hg0 2.826684 1_555
F4 Si0 1.672235 1_565
F4 F8 2.475581 1_455
F4 Hg1 2.757083 1_555
F5 Si1 1.672235 1_556
F5 F9 2.475581 1_555
F5 Hg0 2.757083 1_555
F6 Si0 1.672235 1_655
F6 F8 2.446662 1_545
F6 Hg3 2.757083 1_555
F7 Si1 1.672235 1_565
F7 F9 2.446662 1_564
F7 Hg2 2.757083 1_555
F8 Si0 1.805812 1_665
F8 Hg0 2.136048 1_555
F9 Si1 1.805812 1_556
F9 Hg1 2.136048 1_555
F10 Si0 1.805812 1_555
F10 Hg2 2.136048 1_555
F10 F4 2.446662 1_545
F10 F6 2.475581 1_455
F10 F3 2.481739 1_445
F11 Si1 1.805812 1_565
F11 Hg3 2.136048 1_555
F11 F5 2.446662 1_564
F11 F7 2.475581 1_555
F11 F2 2.481739 1_565
