# generated using pymatgen
data_Cs3YO3
_symmetry_space_group_name_H-M   'P 1'
_cell_length_a   7.51301027
_cell_length_b   7.51301027
_cell_length_c   7.61916197
_cell_angle_alpha   84.26014637
_cell_angle_beta   84.26014637
_cell_angle_gamma   116.23140511
_symmetry_Int_Tables_number   1
_chemical_formula_structural   Cs3YO3
_chemical_formula_sum   'Cs6 Y2 O6'
_cell_volume   378.79796133
_cell_formula_units_Z   2
loop_
 _symmetry_equiv_pos_site_id
 _symmetry_equiv_pos_as_xyz
  1  'x, y, z'
loop_
 _atom_site_type_symbol
 _atom_site_label
 _atom_site_symmetry_multiplicity
 _atom_site_fract_x
 _atom_site_fract_y
 _atom_site_fract_z
 _atom_site_occupancy
  Cs  Cs0  1  0.64442018  0.64442018  0.64701631  1
  Cs  Cs1  1  0.79014470  0.20985530  0.50000000  1
  Cs  Cs2  1  0.20985530  0.79014470  0.50000000  1
  Cs  Cs3  1  0.73732745  0.26267255  -0.00000000  1
  Cs  Cs4  1  0.26267255  0.73732745  -0.00000000  1
  Cs  Cs5  1  0.35557982  0.35557982  0.35298369  1
  Y  Y0  1  0.82681578  0.82681578  0.15121899  1
  Y  Y1  1  0.17318422  0.17318422  0.84878101  1
  O  O0  1  0.89697791  0.89697791  0.85864805  1
  O  O1  1  0.83472193  0.56313567  0.26664801  1
  O  O2  1  0.56313567  0.83472193  0.26664801  1
  O  O3  1  0.43686433  0.16527807  0.73335199  1
  O  O4  1  0.16527807  0.43686433  0.73335199  1
  O  O5  1  0.10302209  0.10302209  0.14135195  1
loop_
_geom_bond_atom_site_label_1
_geom_bond_atom_site_label_2
_geom_bond_distance
_geom_bond_site_symmetry_2
Cs0 O0 2.800365 1_555
Cs0 O4 3.190899 1_555
Cs0 O3 3.190899 1_555
Cs0 O1 3.333626 1_555
Cs0 O2 3.333626 1_555
Cs0 Cs5 3.495592 1_555
Cs0 Cs2 3.897607 1_655
Cs0 Cs1 3.897607 1_565
Cs0 Cs3 4.067983 1_556
Cs0 Cs4 4.067983 1_556
Cs1 O3 2.910191 1_555
Cs1 O1 2.910191 1_555
Cs1 O2 3.372360 1_545
Cs1 O4 3.372360 1_655
Cs1 O0 3.802449 1_545
Cs1 O5 3.802449 1_655
Cs1 Cs5 3.897607 1_655
Cs2 O4 2.910191 1_555
Cs2 O2 2.910191 1_555
Cs2 O1 3.372360 1_455
Cs2 O3 3.372360 1_565
Cs2 O0 3.802449 1_455
Cs2 O5 3.802449 1_565
Cs2 Cs5 3.897607 1_565
Cs3 O3 3.084358 1_554
Cs3 O1 3.084358 1_555
Cs3 O2 3.258790 1_545
Cs3 O4 3.258790 1_654
Cs3 O0 3.659756 1_544
Cs3 O5 3.659756 1_655
Cs3 Cs5 4.067983 1_555
Cs4 O2 3.084358 1_555
Cs4 O4 3.084358 1_554
Cs4 O1 3.258790 1_455
Cs4 O3 3.258790 1_564
Cs4 O0 3.659756 1_454
Cs4 O5 3.659756 1_565
Cs4 Cs5 4.067983 1_555
Cs5 O5 2.800365 1_555
Cs5 O1 3.190899 1_555
Cs5 O2 3.190899 1_555
Cs5 O3 3.333626 1_555
Cs5 O4 3.333626 1_555
O0 Y1 2.179218 1_665
O0 Y0 2.192969 1_556
O1 Y0 2.113637 1_555
O2 Y0 2.113637 1_555
O3 Y1 2.113637 1_555
O4 Y1 2.113637 1_555
O5 Y0 2.179218 1_445
O5 Y1 2.192969 1_554
