# generated using pymatgen
data_RbCrO2
_symmetry_space_group_name_H-M   'P 1'
_cell_length_a   12.91580440
_cell_length_b   12.91580440
_cell_length_c   12.91580437
_cell_angle_alpha   27.92711904
_cell_angle_beta   27.92711904
_cell_angle_gamma   27.92711973
_symmetry_Int_Tables_number   1
_chemical_formula_structural   RbCrO2
_chemical_formula_sum   'Rb8 Cr8 O16'
_cell_volume   417.38568632
_cell_formula_units_Z   8
loop_
 _symmetry_equiv_pos_site_id
 _symmetry_equiv_pos_as_xyz
  1  'x, y, z'
loop_
 _atom_site_type_symbol
 _atom_site_label
 _atom_site_symmetry_multiplicity
 _atom_site_fract_x
 _atom_site_fract_y
 _atom_site_fract_z
 _atom_site_occupancy
  Rb  Rb0_0  1  0.00000000  0.00000000  0.00000000  1
  Rb  Rb0_1  1  0.00000000  0.00000000  0.50000000  1
  Rb  Rb0_2  1  0.00000000  0.50000000  0.00000000  1
  Rb  Rb0_3  1  0.00000000  0.50000000  0.50000000  1
  Rb  Rb0_4  1  0.50000000  0.00000000  0.00000000  1
  Rb  Rb0_5  1  0.50000000  0.00000000  0.50000000  1
  Rb  Rb0_6  1  0.50000000  0.50000000  0.00000000  1
  Rb  Rb0_7  1  0.50000000  0.50000000  0.50000000  1
  Cr  Cr0_0  1  0.25000000  0.25000000  0.25000000  1
  Cr  Cr0_1  1  0.25000000  0.25000000  0.75000000  1
  Cr  Cr0_2  1  0.25000000  0.75000000  0.25000000  1
  Cr  Cr0_3  1  0.25000000  0.75000000  0.75000000  1
  Cr  Cr0_4  1  0.75000000  0.25000000  0.25000000  1
  Cr  Cr0_5  1  0.75000000  0.25000000  0.75000000  1
  Cr  Cr0_6  1  0.75000000  0.75000000  0.25000000  1
  Cr  Cr0_7  1  0.75000000  0.75000000  0.75000000  1
  O  O0_0  1  0.10991213  0.10991213  0.10991213  1
  O  O0_1  1  0.10991213  0.10991213  0.60991213  1
  O  O0_2  1  0.10991213  0.60991213  0.10991213  1
  O  O0_3  1  0.10991213  0.60991213  0.60991213  1
  O  O0_4  1  0.60991213  0.10991213  0.10991213  1
  O  O0_5  1  0.60991213  0.10991213  0.60991213  1
  O  O0_6  1  0.60991213  0.60991213  0.10991213  1
  O  O0_7  1  0.60991213  0.60991213  0.60991213  1
  O  O1_0  1  0.39008787  0.39008787  0.39008787  1
  O  O1_1  1  0.39008787  0.39008787  0.89008787  1
  O  O1_2  1  0.39008787  0.89008787  0.39008787  1
  O  O1_3  1  0.39008787  0.89008787  0.89008787  1
  O  O1_4  1  0.89008787  0.39008787  0.39008787  1
  O  O1_5  1  0.89008787  0.39008787  0.89008787  1
  O  O1_6  1  0.89008787  0.89008787  0.39008787  1
  O  O1_7  1  0.89008787  0.89008787  0.89008787  1
loop_
_geom_bond_atom_site_label_1
_geom_bond_atom_site_label_2
_geom_bond_distance
_geom_bond_site_symmetry_2
Rb0_0 Rb0_5 3.116645 1_455
Rb0_0 Rb0_5 3.116645 1_554
Rb0_0 Rb0_3 3.116645 1_554
Rb0_0 Rb0_3 3.116645 1_545
Rb0_0 Rb0_6 3.116645 1_545
Rb0_0 Rb0_6 3.116645 1_455
Rb0_1 Rb0_4 3.116645 1_555
Rb0_1 Rb0_2 3.116645 1_555
Rb0_1 Rb0_4 3.116645 1_456
Rb0_1 Rb0_2 3.116645 1_546
Rb0_1 Rb0_7 3.116645 1_545
Rb0_1 Rb0_7 3.116645 1_455
Rb0_2 Rb0_7 3.116645 1_554
Rb0_2 Rb0_7 3.116645 1_455
Rb0_2 Rb0_4 3.116645 1_555
Rb0_2 Rb0_4 3.116645 1_465
Rb0_3 Rb0_6 3.116645 1_456
Rb0_3 Rb0_6 3.116645 1_555
Rb0_3 Rb0_5 3.116645 1_555
Rb0_3 Rb0_5 3.116645 1_465
Rb0_4 Rb0_7 3.116645 1_554
Rb0_4 Rb0_7 3.116645 1_545
Rb0_5 Rb0_6 3.116645 1_546
Rb0_5 Rb0_6 3.116645 1_555
Cr0_0 O1_1 2.053313 1_554
Cr0_0 O0_1 2.053313 1_555
Cr0_0 O1_4 2.053313 1_455
Cr0_0 O1_2 2.053313 1_545
Cr0_0 O0_2 2.053313 1_555
Cr0_0 O0_4 2.053313 1_555
Cr0_1 O0_0 2.053313 1_556
Cr0_1 O1_0 2.053313 1_555
Cr0_1 O0_3 2.053313 1_555
Cr0_1 O1_3 2.053313 1_545
Cr0_1 O0_5 2.053313 1_555
Cr0_1 O1_5 2.053313 1_455
Cr0_2 O0_3 2.053313 1_555
Cr0_2 O1_3 2.053313 1_554
Cr0_2 O0_0 2.053313 1_565
Cr0_2 O0_6 2.053313 1_555
Cr0_2 O1_0 2.053313 1_555
Cr0_2 O1_6 2.053313 1_455
Cr0_3 O1_2 2.053313 1_555
Cr0_3 O0_2 2.053313 1_556
Cr0_3 O1_1 2.053313 1_555
Cr0_3 O0_1 2.053313 1_565
Cr0_3 O1_7 2.053313 1_455
Cr0_3 O0_7 2.053313 1_555
Cr0_4 O1_5 2.053313 1_554
Cr0_4 O0_5 2.053313 1_555
Cr0_4 O0_0 2.053313 1_655
Cr0_4 O0_6 2.053313 1_555
Cr0_4 O1_6 2.053313 1_545
Cr0_4 O1_0 2.053313 1_555
Cr0_5 O0_4 2.053313 1_556
Cr0_5 O1_4 2.053313 1_555
Cr0_5 O1_7 2.053313 1_545
Cr0_5 O0_1 2.053313 1_655
Cr0_5 O0_7 2.053313 1_555
Cr0_5 O1_1 2.053313 1_555
Cr0_6 O1_7 2.053313 1_554
Cr0_6 O0_7 2.053313 1_555
Cr0_6 O1_4 2.053313 1_555
Cr0_6 O1_2 2.053313 1_555
Cr0_6 O0_4 2.053313 1_565
Cr0_6 O0_2 2.053313 1_655
Cr0_7 O0_6 2.053313 1_556
Cr0_7 O1_6 2.053313 1_555
Cr0_7 O0_3 2.053313 1_655
Cr0_7 O1_5 2.053313 1_555
Cr0_7 O0_5 2.053313 1_565
Cr0_7 O1_3 2.053313 1_555
O0_0 Rb0_1 2.774594 1_555
O0_0 Rb0_2 2.774594 1_555
O0_0 Rb0_4 2.774594 1_555
O0_1 Rb0_0 2.774594 1_556
O0_1 Rb0_5 2.774594 1_555
O0_1 Rb0_3 2.774594 1_555
O0_2 Rb0_3 2.774594 1_555
O0_2 Rb0_6 2.774594 1_555
O0_2 Rb0_0 2.774594 1_565
O0_3 Rb0_2 2.774594 1_556
O0_3 Rb0_7 2.774594 1_555
O0_3 Rb0_1 2.774594 1_565
O0_4 Rb0_5 2.774594 1_555
O0_4 Rb0_6 2.774594 1_555
O0_4 Rb0_0 2.774594 1_655
O0_5 Rb0_4 2.774594 1_556
O0_5 Rb0_7 2.774594 1_555
O0_5 Rb0_1 2.774594 1_655
O0_6 Rb0_7 2.774594 1_555
O0_6 Rb0_4 2.774594 1_565
O0_6 Rb0_2 2.774594 1_655
O0_7 Rb0_6 2.774594 1_556
O0_7 Rb0_5 2.774594 1_565
O0_7 Rb0_3 2.774594 1_655
O1_0 Rb0_6 2.774594 1_555
O1_0 Rb0_3 2.774594 1_555
O1_0 Rb0_5 2.774594 1_555
O1_1 Rb0_7 2.774594 1_555
O1_1 Rb0_2 2.774594 1_556
O1_1 Rb0_4 2.774594 1_556
O1_2 Rb0_4 2.774594 1_565
O1_2 Rb0_1 2.774594 1_565
O1_2 Rb0_7 2.774594 1_555
O1_3 Rb0_5 2.774594 1_565
O1_3 Rb0_6 2.774594 1_556
O1_3 Rb0_0 2.774594 1_566
O1_4 Rb0_2 2.774594 1_655
O1_4 Rb0_7 2.774594 1_555
O1_4 Rb0_1 2.774594 1_655
O1_5 Rb0_3 2.774594 1_655
O1_5 Rb0_6 2.774594 1_556
O1_5 Rb0_0 2.774594 1_656
O1_6 Rb0_0 2.774594 1_665
O1_6 Rb0_5 2.774594 1_565
O1_6 Rb0_3 2.774594 1_655
O1_7 Rb0_1 2.774594 1_665
O1_7 Rb0_4 2.774594 1_566
O1_7 Rb0_2 2.774594 1_656
