# generated using pymatgen
data_Fe10O11F9
_symmetry_space_group_name_H-M   'P 1'
_cell_length_a   4.72831500
_cell_length_b   4.74058629
_cell_length_c   15.37061859
_cell_angle_alpha   89.83823757
_cell_angle_beta   89.86416924
_cell_angle_gamma   87.76251332
_symmetry_Int_Tables_number   1
_chemical_formula_structural   Fe10O11F9
_chemical_formula_sum   'Fe10 O11 F9'
_cell_volume   344.26725997
_cell_formula_units_Z   1
loop_
 _symmetry_equiv_pos_site_id
 _symmetry_equiv_pos_as_xyz
  1  'x, y, z'
loop_
 _atom_site_type_symbol
 _atom_site_label
 _atom_site_symmetry_multiplicity
 _atom_site_fract_x
 _atom_site_fract_y
 _atom_site_fract_z
 _atom_site_occupancy
  Fe  Fe0  1  0.98018900  0.02311100  0.00014400  1
  Fe  Fe1  1  0.01455000  0.99914600  0.80296300  1
  Fe  Fe2  1  0.99711500  0.98532000  0.59661600  1
  Fe  Fe3  1  0.95854000  0.99778400  0.39995800  1
  Fe  Fe4  1  0.95879100  0.99308400  0.19990300  1
  Fe  Fe5  1  0.48085700  0.45598900  0.89187200  1
  Fe  Fe6  1  0.53320200  0.51088800  0.50808800  1
  Fe  Fe7  1  0.50273700  0.49545000  0.69993100  1
  Fe  Fe8  1  0.53987300  0.49747500  0.30241300  1
  Fe  Fe9  1  0.54675000  0.51099800  0.09739600  1
  O  O0  1  0.81097700  0.80992900  0.50257600  1
  O  O1  1  0.80137800  0.80959300  0.30075600  1
  O  O2  1  0.80923400  0.81661000  0.09694800  1
  O  O3  1  0.68382100  0.31305400  0.99536700  1
  O  O4  1  0.69564500  0.29392300  0.79190000  1
  O  O5  1  0.70083500  0.30101000  0.60784300  1
  O  O6  1  0.69168100  0.31557900  0.40503200  1
  O  O7  1  0.69548600  0.31612500  0.19953700  1
  O  O8  1  0.30604500  0.68287100  0.79363300  1
  O  O9  1  0.31112600  0.69037700  0.60655100  1
  O  O10  1  0.18364100  0.17996800  0.89928000  1
  F  F0  1  0.79688100  0.79793800  0.89798900  1
  F  F1  1  0.81450100  0.80283900  0.70137800  1
  F  F2  1  0.29544900  0.69938400  0.99834700  1
  F  F3  1  0.30136100  0.70607500  0.40237700  1
  F  F4  1  0.30414600  0.70819800  0.19992200  1
  F  F5  1  0.19902000  0.19723200  0.50066300  1
  F  F6  1  0.19443400  0.18229200  0.69814400  1
  F  F7  1  0.19626700  0.20673700  0.10035500  1
  F  F8  1  0.19546900  0.20102000  0.30212000  1
loop_
_geom_bond_atom_site_label_1
_geom_bond_atom_site_label_2
_geom_bond_distance
_geom_bond_site_symmetry_2
Fe0 O3 1.925581 1_554
Fe0 O2 1.968128 1_545
Fe0 O10 1.980955 1_654
Fe1 O10 1.905794 1_565
Fe1 O8 2.001781 1_555
Fe1 O4 2.022558 1_465
Fe2 O0 1.904001 1_555
Fe2 O9 2.005124 1_655
Fe2 O5 2.017077 1_565
Fe3 O6 1.928631 1_565
Fe3 O1 1.933376 1_555
Fe3 O0 1.950163 1_555
Fe4 O7 1.935546 1_565
Fe4 O1 1.936784 1_555
Fe4 O2 1.939890 1_555
Fe5 O10 1.960123 1_555
Fe5 O3 1.964964 1_555
Fe5 O4 1.980217 1_555
Fe5 O8 2.011825 1_555
Fe6 O6 1.968859 1_555
Fe6 O0 1.971312 1_555
Fe6 O5 1.976039 1_555
Fe6 O9 2.011731 1_555
Fe7 O5 1.914198 1_555
Fe7 O8 1.914430 1_555
Fe7 O9 1.915241 1_555
Fe7 O4 1.916626 1_555
Fe8 O6 1.922517 1_555
Fe8 O7 1.932266 1_555
Fe8 O1 1.965019 1_555
Fe9 O3 1.927693 1_554
Fe9 O7 1.938851 1_555
Fe9 O2 1.944135 1_555
F0 Fe1 2.040618 1_655
F0 Fe0 2.108158 1_566
F0 Fe5 2.249464 1_555
F0 O3 2.807582 1_555
F0 F2 2.842926 1_655
F0 F2 2.878223 1_555
F1 Fe2 2.032410 1_555
F1 Fe1 2.069478 1_655
F1 Fe7 2.113062 1_555
F1 O4 2.753888 1_565
F1 O8 2.764754 1_655
F1 O9 2.795198 1_655
F1 O5 2.796150 1_565
F1 O5 2.852733 1_555
F1 O4 2.855770 1_555
F1 O9 2.862438 1_555
F1 O8 2.863590 1_555
F2 Fe0 2.097471 1_466
F2 Fe9 2.108394 1_556
F2 Fe5 2.168680 1_555
F2 O3 2.542808 1_555
F2 O10 2.771059 1_565
F2 O2 2.789179 1_456
F2 F7 2.862505 1_556
F2 F7 2.897034 1_566
F3 Fe3 2.089548 1_455
F3 Fe8 2.126941 1_555
F3 Fe6 2.149126 1_555
F3 O6 2.562766 1_555
F3 F5 2.804668 1_565
F3 O0 2.808718 1_455
F3 F8 2.832346 1_565
F3 O1 2.862176 1_455
F3 O1 2.887728 1_555
F3 F5 2.898673 1_555
F3 F8 2.911352 1_555
F3 O0 2.921500 1_555
F4 Fe4 2.078037 1_455
F4 Fe9 2.142248 1_555
F4 Fe8 2.152776 1_555
F4 O7 2.570993 1_555
F4 F7 2.842003 1_565
F4 F8 2.848315 1_565
F4 O2 2.857347 1_455
F4 O1 2.860417 1_455
F4 O1 2.875835 1_555
F4 F7 2.893515 1_555
F4 O2 2.923388 1_555
F4 F8 2.929793 1_555
F5 Fe2 2.038538 1_445
F5 Fe3 2.164124 1_445
F5 Fe6 2.214944 1_555
F5 O6 2.825405 1_555
F5 O6 2.852523 1_455
F6 Fe1 2.028855 1_545
F6 Fe2 2.064181 1_445
F6 Fe7 2.121108 1_555
F6 O5 2.756568 1_455
F6 O9 2.763856 1_545
F6 O4 2.794588 1_455
F6 O8 2.815048 1_545
F6 O5 2.839287 1_555
F6 O4 2.844566 1_555
F6 O9 2.858119 1_555
F7 Fe0 2.063642 1_455
F7 Fe4 2.167907 1_445
F7 Fe9 2.239357 1_555
F7 O7 2.844497 1_455
F7 O3 2.870730 1_554
F7 O7 2.877824 1_555
F8 Fe3 2.124355 1_445
F8 Fe4 2.189916 1_445
F8 Fe8 2.192192 1_555
F8 O7 2.878348 1_455
F8 O6 2.890902 1_455
F8 O6 2.902396 1_555
F8 O7 2.907191 1_555
