# generated using pymatgen
data_Li4V3OF11
_symmetry_space_group_name_H-M   'P 1'
_cell_length_a   5.25273100
_cell_length_b   5.46019680
_cell_length_c   16.18088969
_cell_angle_alpha   99.58871736
_cell_angle_beta   89.87235206
_cell_angle_gamma   91.35676010
_symmetry_Int_Tables_number   1
_chemical_formula_structural   Li4V3OF11
_chemical_formula_sum   'Li8 V6 O2 F22'
_cell_volume   457.47045060
_cell_formula_units_Z   2
loop_
 _symmetry_equiv_pos_site_id
 _symmetry_equiv_pos_as_xyz
  1  'x, y, z'
loop_
 _atom_site_type_symbol
 _atom_site_label
 _atom_site_symmetry_multiplicity
 _atom_site_fract_x
 _atom_site_fract_y
 _atom_site_fract_z
 _atom_site_occupancy
  Li  Li0  1  0.67535900  0.19595400  0.84274000  1
  Li  Li1  1  0.46570800  0.23214700  0.56761700  1
  Li  Li2  1  0.03237400  0.04182700  0.21488100  1
  Li  Li3  1  0.51435500  0.14560600  0.10761500  1
  Li  Li4  1  0.19770900  0.64355300  0.81909400  1
  Li  Li5  1  0.01131300  0.70366100  0.56373500  1
  Li  Li6  1  0.53822900  0.78512600  0.45050300  1
  Li  Li7  1  0.97860200  0.57839900  0.09627200  1
  V  V0  1  0.98590600  0.30007900  0.66347900  1
  V  V1  1  0.50503300  0.17074500  0.33562900  1
  V  V2  1  0.48451700  0.49954800  0.00096500  1
  V  V3  1  0.01575600  0.02058900  0.99868500  1
  V  V4  1  0.51874500  0.83775700  0.66701700  1
  V  V5  1  0.00478900  0.66005200  0.33176600  1
  O  O0  1  0.81273300  0.99388200  0.62867800  1
  O  O1  1  0.19507400  0.32403400  0.03440000  1
  F  F0  1  0.68697100  0.17916400  0.96483100  1
  F  F1  1  0.33180000  0.16255000  0.68598000  1
  F  F2  1  0.86373000  0.02936700  0.11593100  1
  F  F3  1  0.59097000  0.16268100  0.45020100  1
  F  F4  1  0.91587800  0.37354300  0.78245200  1
  F  F5  1  0.38009000  0.15181900  0.22285700  1
  F  F6  1  0.42107600  0.47130900  0.88124500  1
  F  F7  1  0.12704200  0.34416200  0.55419300  1
  F  F8  1  0.84169300  0.32656200  0.29957900  1
  F  F9  1  0.68538300  0.49945300  0.62603900  1
  F  F10  1  0.82280900  0.68323500  0.98703400  1
  F  F11  1  0.33973200  0.50130800  0.36527800  1
  F  F12  1  0.18911000  0.64967500  0.69379000  1
  F  F13  1  0.63338500  0.49448100  0.11392000  1
  F  F14  1  0.88005500  0.67535300  0.44464300  1
  F  F15  1  0.58761100  0.87348200  0.78437000  1
  F  F16  1  0.09619400  0.94342300  0.88320000  1
  F  F17  1  0.08963600  0.68150700  0.21774700  1
  F  F18  1  0.36108900  0.81548200  0.54961400  1
  F  F19  1  0.68241100  0.85094000  0.31051900  1
  F  F20  1  0.31566400  0.83709200  0.04362000  1
  F  F21  1  0.18127400  0.98424000  0.36065000  1
loop_
_geom_bond_atom_site_label_1
_geom_bond_atom_site_label_2
_geom_bond_distance
_geom_bond_site_symmetry_2
Li1 O0 2.557338 1_545
Li3 O1 2.374034 1_555
Li5 O0 2.054768 1_455
Li7 O1 1.957215 1_655
O0 V0 1.885835 1_565
O0 V4 1.898896 1_555
O1 V3 1.891007 1_554
O1 V2 1.903335 1_555
F0 Li0 1.993997 1_555
F0 V3 2.065286 1_655
F0 V2 2.068232 1_556
F0 Li3 2.513432 1_556
F0 F10 2.791452 1_555
F1 V4 2.025667 1_545
F1 V0 2.038673 1_455
F1 Li1 2.128621 1_555
F1 F18 2.665126 1_545
F1 F12 2.763018 1_555
F1 F15 2.788994 1_545
F1 F4 2.835820 1_455
F2 Li2 1.822097 1_655
F2 Li3 1.968122 1_555
F2 V3 2.050344 1_654
F2 Li7 2.517362 1_545
F3 V1 1.916880 1_555
F3 Li1 1.988105 1_555
F3 Li6 2.074358 1_545
F4 Li0 1.933818 1_555
F4 V0 1.936168 1_555
F4 Li4 2.079902 1_655
F5 Li2 1.906983 1_555
F5 V1 1.926245 1_555
F5 Li3 1.987438 1_555
F6 Li4 1.909207 1_555
F6 V2 1.946383 1_556
F6 Li0 2.052323 1_555
F7 Li1 1.919201 1_555
F7 V0 1.965220 1_455
F7 Li5 2.049782 1_555
F8 V5 1.983205 1_655
F8 V1 2.069006 1_555
F8 Li2 2.157854 1_655
F9 Li1 1.954691 1_555
F9 V4 2.069762 1_555
F9 V0 2.085504 1_555
F9 Li5 2.338165 1_655
F10 V2 2.050236 1_556
F10 V3 2.062161 1_665
F10 Li7 2.118338 1_556
F10 F2 2.576368 1_566
F10 F16 2.755202 1_655
F10 F6 2.821813 1_555
F11 V1 2.006429 1_555
F11 V5 2.091352 1_555
F11 Li6 2.146698 1_555
F11 F5 2.747562 1_555
F12 Li4 2.033985 1_555
F12 V4 2.073893 1_555
F12 V0 2.148848 1_455
F12 Li5 2.369826 1_555
F12 F7 2.591033 1_555
F13 Li7 1.892514 1_555
F13 Li3 1.977171 1_555
F13 V2 1.994243 1_555
F14 Li6 1.903527 1_555
F14 V5 1.928368 1_655
F14 Li5 2.028369 1_655
F14 F8 2.769822 1_555
F15 Li0 1.901116 1_565
F15 V4 1.910746 1_555
F15 Li4 2.488873 1_555
F16 Li4 1.874641 1_555
F16 V3 1.894865 1_565
F17 V5 1.918849 1_555
F17 Li2 2.005451 1_565
F17 Li7 2.035066 1_455
F17 F19 2.702134 1_455
F18 Li6 1.837719 1_555
F18 Li5 1.947325 1_555
F18 V4 2.057827 1_555
F18 Li1 2.298591 1_565
F19 V1 1.980249 1_565
F19 V5 2.068234 1_655
F19 Li6 2.466552 1_555
F19 Li2 2.700792 1_665
F20 V2 2.076243 1_555
F20 V3 2.082486 1_564
F20 Li3 2.083178 1_565
F20 Li7 2.476176 1_455
F21 V5 1.964633 1_555
F21 V1 2.036010 1_565
F21 Li2 2.557515 1_565
F21 F3 2.669159 1_565
F21 Li6 2.728865 1_555
