# generated using pymatgen
data_Li3Ta7O19
_symmetry_space_group_name_H-M   'P 1'
_cell_length_a   6.30097129
_cell_length_b   6.30097129
_cell_length_c   20.16851700
_cell_angle_alpha   90.00000000
_cell_angle_beta   90.00000000
_cell_angle_gamma   119.99999254
_symmetry_Int_Tables_number   1
_chemical_formula_structural   Li3Ta7O19
_chemical_formula_sum   'Li6 Ta14 O38'
_cell_volume   693.45715155
_cell_formula_units_Z   2
loop_
 _symmetry_equiv_pos_site_id
 _symmetry_equiv_pos_as_xyz
  1  'x, y, z'
loop_
 _atom_site_type_symbol
 _atom_site_label
 _atom_site_symmetry_multiplicity
 _atom_site_fract_x
 _atom_site_fract_y
 _atom_site_fract_z
 _atom_site_occupancy
  Li  Li0  1  0.00000000  0.50000000  0.00000000  1
  Li  Li1  1  0.00000000  0.50000000  0.50000000  1
  Li  Li2  1  0.50000000  0.50000000  0.00000000  1
  Li  Li3  1  0.50000000  0.50000000  0.50000000  1
  Li  Li4  1  0.50000000  0.00000000  0.50000000  1
  Li  Li5  1  0.50000000  0.00000000  0.00000000  1
  Ta  Ta0  1  0.30508600  0.97070900  0.65485700  1
  Ta  Ta1  1  0.30508600  0.97070900  0.84514300  1
  Ta  Ta2  1  0.02929100  0.33437600  0.65485700  1
  Ta  Ta3  1  0.02929100  0.33437600  0.84514300  1
  Ta  Ta4  1  0.00000000  0.00000000  0.00000000  1
  Ta  Ta5  1  0.00000000  0.00000000  0.50000000  1
  Ta  Ta6  1  0.33437600  0.30508600  0.15485700  1
  Ta  Ta7  1  0.33437600  0.30508600  0.34514300  1
  Ta  Ta8  1  0.66562400  0.69491400  0.65485700  1
  Ta  Ta9  1  0.66562400  0.69491400  0.84514300  1
  Ta  Ta10  1  0.97070900  0.66562400  0.15485700  1
  Ta  Ta11  1  0.97070900  0.66562400  0.34514300  1
  Ta  Ta12  1  0.69491400  0.02929100  0.15485700  1
  Ta  Ta13  1  0.69491400  0.02929100  0.34514300  1
  O  O0  1  0.24306300  0.95961200  0.55491300  1
  O  O1  1  0.24306300  0.95961200  0.94508700  1
  O  O2  1  0.29462300  0.93072500  0.75000000  1
  O  O3  1  0.08589700  0.42019700  0.15029900  1
  O  O4  1  0.08589700  0.42019700  0.34970100  1
  O  O5  1  0.06927500  0.36389800  0.75000000  1
  O  O6  1  0.33429900  0.91410300  0.15029900  1
  O  O7  1  0.33429900  0.91410300  0.34970100  1
  O  O8  1  0.04038800  0.28345100  0.55491300  1
  O  O9  1  0.04038800  0.28345100  0.94508700  1
  O  O10  1  0.00000000  0.00000000  0.16376000  1
  O  O11  1  0.00000000  0.00000000  0.33624000  1
  O  O12  1  0.00000000  0.00000000  0.66376000  1
  O  O13  1  0.00000000  0.00000000  0.83624000  1
  O  O14  1  0.33333300  0.66666700  0.63793600  1
  O  O15  1  0.33333300  0.66666700  0.86206400  1
  O  O16  1  0.28345100  0.24306300  0.05491300  1
  O  O17  1  0.28345100  0.24306300  0.44508700  1
  O  O18  1  0.36389800  0.29462300  0.25000000  1
  O  O19  1  0.42019700  0.33429900  0.65029900  1
  O  O20  1  0.42019700  0.33429900  0.84970100  1
  O  O21  1  0.57980300  0.66570100  0.34970100  1
  O  O22  1  0.57980300  0.66570100  0.15029900  1
  O  O23  1  0.63610200  0.70537700  0.75000000  1
  O  O24  1  0.71654900  0.75693700  0.55491300  1
  O  O25  1  0.71654900  0.75693700  0.94508700  1
  O  O26  1  0.66666700  0.33333300  0.36206400  1
  O  O27  1  0.66666700  0.33333300  0.13793600  1
  O  O28  1  0.95961200  0.71654900  0.05491300  1
  O  O29  1  0.95961200  0.71654900  0.44508700  1
  O  O30  1  0.66570100  0.08589700  0.65029900  1
  O  O31  1  0.66570100  0.08589700  0.84970100  1
  O  O32  1  0.93072500  0.63610200  0.25000000  1
  O  O33  1  0.91410300  0.57980300  0.65029900  1
  O  O34  1  0.91410300  0.57980300  0.84970100  1
  O  O35  1  0.70537700  0.06927500  0.25000000  1
  O  O36  1  0.75693700  0.04038800  0.05491300  1
  O  O37  1  0.75693700  0.04038800  0.44508700  1
loop_
_geom_bond_atom_site_label_1
_geom_bond_atom_site_label_2
_geom_bond_distance
_geom_bond_site_symmetry_2
Li0 O9 1.870925 1_554
Li0 O28 1.870925 1_455
Li1 O8 1.870925 1_555
Li1 O29 1.870925 1_455
Li2 O16 1.870925 1_555
Li2 O25 1.870925 1_554
Li3 O24 1.870925 1_555
Li3 O17 1.870925 1_555
Li4 O0 1.870925 1_545
Li4 O37 1.870925 1_555
Li5 O1 1.870925 1_544
Li5 O36 1.870925 1_555
O0 Ta5 2.006662 1_565
O0 Ta0 2.047786 1_555
O0 O14 2.753964 1_555
O0 O12 2.760321 1_565
O0 O19 2.808110 1_565
O1 Ta4 2.006662 1_566
O1 Ta1 2.047786 1_555
O1 O15 2.753964 1_555
O1 O13 2.760321 1_565
O1 O20 2.808110 1_565
O2 Ta1 1.932191 1_555
O2 Ta0 1.932191 1_555
O3 Ta10 2.012229 1_455
O3 Ta6 2.030124 1_555
O3 Ta12 2.465045 1_455
O3 O6 2.695163 1_555
O4 Ta11 2.012229 1_455
O4 Ta7 2.030124 1_555
O4 Ta13 2.465045 1_455
O4 O7 2.695163 1_555
O5 Ta3 1.932191 1_555
O5 Ta2 1.932191 1_555
O6 Ta12 2.012229 1_565
O6 Ta10 2.030125 1_455
O6 Ta6 2.465045 1_565
O7 Ta13 2.012229 1_565
O7 Ta11 2.030125 1_455
O7 Ta7 2.465045 1_565
O8 Ta5 2.006662 1_555
O8 Ta2 2.047785 1_555
O9 Ta4 2.006662 1_556
O9 Ta3 2.047785 1_555
O10 Ta10 2.028905 1_445
O10 Ta6 2.028907 1_555
O10 Ta12 2.028911 1_455
O10 O6 2.437962 1_545
O10 O22 2.437966 1_445
O10 O3 2.437968 1_555
O10 O35 2.733568 1_455
O10 O32 2.733568 1_445
O10 O18 2.733569 1_555
O10 O36 2.760321 1_455
O10 O28 2.760321 1_445
O10 O16 2.760321 1_555
O11 Ta11 2.028905 1_445
O11 Ta7 2.028907 1_555
O11 Ta13 2.028911 1_455
O11 O7 2.437962 1_545
O11 O21 2.437966 1_445
O11 O4 2.437968 1_555
O11 O35 2.733568 1_455
O11 O32 2.733568 1_445
O11 O18 2.733569 1_555
O11 O37 2.760321 1_455
O11 O29 2.760321 1_445
O11 O17 2.760321 1_555
O12 Ta2 2.028905 1_555
O12 Ta8 2.028907 1_445
O12 Ta0 2.028911 1_545
O12 O30 2.437962 1_455
O12 O19 2.437966 1_555
O12 O33 2.437968 1_445
O12 O2 2.733568 1_545
O12 O5 2.733568 1_555
O12 O23 2.733569 1_445
O12 O8 2.760321 1_555
O12 O24 2.760321 1_445
O13 Ta3 2.028905 1_555
O13 Ta9 2.028907 1_445
O13 Ta1 2.028911 1_545
O13 O31 2.437962 1_455
O13 O20 2.437966 1_555
O13 O34 2.437968 1_445
O13 O2 2.733568 1_545
O13 O5 2.733568 1_555
O13 O23 2.733569 1_445
O13 O9 2.760321 1_555
O13 O25 2.760321 1_445
O14 Ta0 2.039425 1_555
O14 Ta2 2.039432 1_555
O14 Ta8 2.039437 1_555
O14 O33 2.427707 1_455
O14 O30 2.427711 1_565
O14 O19 2.427719 1_555
O14 O8 2.753967 1_555
O14 O24 2.753969 1_555
O15 Ta1 2.039425 1_555
O15 Ta3 2.039432 1_555
O15 Ta9 2.039437 1_555
O15 O34 2.427707 1_455
O15 O31 2.427711 1_565
O15 O20 2.427719 1_555
O15 O9 2.753967 1_555
O15 O25 2.753969 1_555
O16 Ta4 2.006662 1_555
O16 Ta6 2.047786 1_555
O16 O27 2.753969 1_555
O16 O3 2.808114 1_555
O17 Ta5 2.006662 1_555
O17 Ta7 2.047786 1_555
O17 O26 2.753969 1_555
O17 O4 2.808114 1_555
O18 Ta7 1.932191 1_555
O18 Ta6 1.932191 1_555
O19 Ta8 2.012229 1_555
O19 Ta0 2.030125 1_545
O19 Ta2 2.465045 1_555
O19 O30 2.695162 1_555
O19 O33 2.695163 1_555
O20 Ta9 2.012229 1_555
O20 Ta1 2.030125 1_545
O20 Ta3 2.465045 1_555
O20 O31 2.695162 1_555
O20 O34 2.695163 1_555
O21 Ta7 2.012229 1_555
O21 Ta13 2.030125 1_565
O21 O26 2.427719 1_555
O21 Ta11 2.465045 1_555
O21 O7 2.695162 1_555
O21 O4 2.695163 1_555
O21 O37 2.808110 1_565
O22 Ta6 2.012229 1_555
O22 Ta12 2.030125 1_565
O22 O27 2.427719 1_555
O22 Ta10 2.465045 1_555
O22 O6 2.695162 1_555
O22 O3 2.695163 1_555
O22 O36 2.808110 1_565
O23 Ta9 1.932191 1_555
O23 Ta8 1.932191 1_555
O24 Ta5 2.006662 1_665
O24 Ta8 2.047786 1_555
O24 O33 2.808114 1_555
O25 Ta4 2.006662 1_666
O25 Ta9 2.047786 1_555
O25 O34 2.808114 1_555
O26 Ta13 2.039425 1_555
O26 Ta11 2.039432 1_555
O26 Ta7 2.039437 1_555
O26 O4 2.427707 1_655
O26 O7 2.427711 1_545
O26 O37 2.753964 1_555
O26 O29 2.753967 1_555
O27 Ta12 2.039425 1_555
O27 Ta10 2.039432 1_555
O27 Ta6 2.039437 1_555
O27 O3 2.427707 1_655
O27 O6 2.427711 1_545
O27 O36 2.753964 1_555
O27 O28 2.753967 1_555
O28 Ta4 2.006662 1_665
O28 Ta10 2.047785 1_555
O28 O6 2.808110 1_655
O29 Ta5 2.006662 1_665
O29 Ta11 2.047785 1_555
O29 O7 2.808110 1_655
O30 Ta0 2.012229 1_545
O30 Ta2 2.030125 1_655
O30 Ta8 2.465045 1_545
O30 O33 2.695163 1_555
O30 O8 2.808110 1_655
O31 Ta1 2.012229 1_545
O31 Ta3 2.030125 1_655
O31 Ta9 2.465045 1_545
O31 O34 2.695163 1_555
O31 O9 2.808110 1_655
O32 Ta11 1.932191 1_555
O32 Ta10 1.932191 1_555
O33 Ta2 2.012229 1_655
O33 Ta8 2.030124 1_555
O33 Ta0 2.465045 1_655
O34 Ta3 2.012229 1_655
O34 Ta9 2.030124 1_555
O34 Ta1 2.465045 1_655
O35 Ta13 1.932191 1_555
O35 Ta12 1.932191 1_555
O36 Ta4 2.006662 1_655
O36 Ta12 2.047786 1_555
O37 Ta5 2.006662 1_655
O37 Ta13 2.047786 1_555
