# generated using pymatgen
data_Li4Fe3(SiO4)3
_symmetry_space_group_name_H-M   'P 1'
_cell_length_a   4.32764837
_cell_length_b   11.91338687
_cell_length_c   5.45707788
_cell_angle_alpha   83.02530416
_cell_angle_beta   66.64152219
_cell_angle_gamma   79.53235054
_symmetry_Int_Tables_number   1
_chemical_formula_structural   Li4Fe3(SiO4)3
_chemical_formula_sum   'Li4 Fe3 Si3 O12'
_cell_volume   253.61233154
_cell_formula_units_Z   1
loop_
 _symmetry_equiv_pos_site_id
 _symmetry_equiv_pos_as_xyz
  1  'x, y, z'
loop_
 _atom_site_type_symbol
 _atom_site_label
 _atom_site_symmetry_multiplicity
 _atom_site_fract_x
 _atom_site_fract_y
 _atom_site_fract_z
 _atom_site_occupancy
  Li  Li0  1  0.33027500  0.42029800  0.91792400  1
  Li  Li1  1  0.00181400  0.24638300  0.74869400  1
  Li  Li2  1  0.33067800  0.91814600  0.42295100  1
  Li  Li3  1  0.00518300  0.74852300  0.24375400  1
  Fe  Fe0  1  0.67094800  0.83332600  0.83329900  1
  Fe  Fe1  1  0.00188400  0.50270100  0.48917200  1
  Fe  Fe2  1  0.32715200  0.16398900  0.17744400  1
  Si  Si0  1  0.33295300  0.66659300  0.66378800  1
  Si  Si1  1  0.67032300  0.33332500  0.33325600  1
  Si  Si2  1  0.99656900  0.00005300  0.00290500  1
  O  O0  1  0.19314200  0.11377500  0.91600900  1
  O  O1  1  0.55637200  0.55289500  0.75076300  1
  O  O2  1  0.98043200  0.71111400  0.91607600  1
  O  O3  1  0.30162700  0.37135900  0.58461000  1
  O  O4  1  0.94082500  0.95559600  0.75064400  1
  O  O5  1  0.56076900  0.77510000  0.55757800  1
  O  O6  1  0.23195600  0.63297200  0.42210500  1
  O  O7  1  0.22683100  0.89156800  0.10905800  1
  O  O8  1  0.89742600  0.22703300  0.44061400  1
  O  O9  1  0.62027100  0.03366900  0.24471100  1
  O  O10  1  0.89840900  0.43962900  0.22591900  1
  O  O11  1  0.59082700  0.29528800  0.08206000  1
loop_
_geom_bond_atom_site_label_1
_geom_bond_atom_site_label_2
_geom_bond_distance
_geom_bond_site_symmetry_2
Li0 O1 1.946486 1_555
Li0 O10 1.953890 1_456
Li0 O3 2.031354 1_555
Li0 O11 2.039221 1_556
Li1 O0 1.946513 1_555
Li1 O8 1.953953 1_455
Li1 O11 2.031629 1_456
Li1 O3 2.039346 1_555
Li2 O9 1.935421 1_565
Li2 O4 1.941956 1_455
Li2 O7 2.007549 1_555
Li2 O5 2.023578 1_555
Li3 O6 1.935604 1_555
Li3 O2 1.941751 1_454
Li3 O5 2.007659 1_455
Li3 O7 2.023653 1_555
Fe0 O2 1.931102 1_555
Fe0 O4 1.931377 1_555
Fe0 O5 1.978637 1_555
Fe0 O7 1.978771 1_556
Fe1 O6 1.915331 1_555
Fe1 O1 1.928361 1_455
Fe1 O10 1.929631 1_455
Fe1 O3 2.000644 1_555
Fe2 O9 1.915599 1_555
Fe2 O0 1.928478 1_554
Fe2 O8 1.929165 1_455
Fe2 O11 1.999911 1_555
O0 Si2 1.651349 1_456
O1 Si0 1.651290 1_555
O2 Si0 1.649849 1_655
O3 Si1 1.668955 1_555
O4 Si2 1.649422 1_566
O5 Si0 1.675407 1_555
O6 Si0 1.655277 1_555
O7 Si2 1.675373 1_465
O8 Si1 1.654351 1_555
O9 Si2 1.655583 1_555
O10 Si1 1.654353 1_555
O11 Si1 1.668607 1_555
