# generated using pymatgen
data_LiFe2OF3
_symmetry_space_group_name_H-M   'P 1'
_cell_length_a   6.22980600
_cell_length_b   6.27804002
_cell_length_c   8.62666461
_cell_angle_alpha   91.05598765
_cell_angle_beta   90.03994323
_cell_angle_gamma   90.19677427
_symmetry_Int_Tables_number   1
_chemical_formula_structural   LiFe2OF3
_chemical_formula_sum   'Li4 Fe8 O4 F12'
_cell_volume   337.33784385
_cell_formula_units_Z   4
loop_
 _symmetry_equiv_pos_site_id
 _symmetry_equiv_pos_as_xyz
  1  'x, y, z'
loop_
 _atom_site_type_symbol
 _atom_site_label
 _atom_site_symmetry_multiplicity
 _atom_site_fract_x
 _atom_site_fract_y
 _atom_site_fract_z
 _atom_site_occupancy
  Li  Li0  1  0.75203300  0.99299600  0.98229600  1
  Li  Li1  1  0.26891700  0.98907500  0.50555700  1
  Li  Li2  1  0.49835400  0.25354500  0.74841500  1
  Li  Li3  1  0.00066000  0.25936500  0.74627000  1
  Fe  Fe0  1  0.00594100  0.75061400  0.23616300  1
  Fe  Fe1  1  0.50668300  0.74555700  0.27203900  1
  Fe  Fe2  1  0.73073000  0.76033000  0.63854100  1
  Fe  Fe3  1  0.21372000  0.77584600  0.87251400  1
  Fe  Fe4  1  0.75306000  0.50586300  0.99947100  1
  Fe  Fe5  1  0.26231300  0.50730100  0.50957900  1
  Fe  Fe6  1  0.74731800  0.28752900  0.37001200  1
  Fe  Fe7  1  0.24399500  0.17864500  0.12123200  1
  O  O0  1  0.26169900  0.94663900  0.25879500  1
  O  O1  1  0.47549500  0.73433900  0.51559700  1
  O  O2  1  0.96093000  0.75152900  0.99419700  1
  O  O3  1  0.75448400  0.54012900  0.24580800  1
  F  F0  1  0.76123000  0.00828100  0.24794500  1
  F  F1  1  0.51094400  0.75927800  0.98591000  1
  F  F2  1  0.01421200  0.75315800  0.50952600  1
  F  F3  1  0.25305100  0.47774500  0.23949500  1
  F  F4  1  0.74676000  0.46822500  0.75099800  1
  F  F5  1  0.24756100  0.47789100  0.75622200  1
  F  F6  1  0.02741300  0.27370000  0.50437300  1
  F  F7  1  0.98208900  0.23977800  0.98940600  1
  F  F8  1  0.52268300  0.24622300  0.99239500  1
  F  F9  1  0.48938900  0.24084600  0.50882200  1
  F  F10  1  0.75897100  0.03637700  0.75165400  1
  F  F11  1  0.24936500  0.03919500  0.74677000  1
loop_
_geom_bond_atom_site_label_1
_geom_bond_atom_site_label_2
_geom_bond_distance
_geom_bond_site_symmetry_2
Li0 O2 2.005324 1_555
Li1 O1 2.059219 1_555
Li1 O0 2.140884 1_555
Fe0 O0 2.017063 1_555
Fe0 O3 2.048691 1_455
Fe0 O2 2.106032 1_454
Fe1 O0 1.988545 1_555
Fe1 O3 2.025110 1_555
Fe1 O1 2.112636 1_555
Fe2 O1 1.915537 1_555
Fe3 O2 1.900493 1_455
Fe4 O2 2.011644 1_555
Fe4 O3 2.131989 1_556
Fe5 O1 1.944815 1_555
Fe6 O3 1.930572 1_555
Fe7 O0 1.899103 1_545
F0 Fe6 2.030512 1_555
F0 Fe0 2.227623 1_645
F0 Li0 2.292573 1_544
F0 Fe1 2.296414 1_545
F1 Li0 2.096747 1_555
F1 Fe3 2.097355 1_555
F1 Fe4 2.200677 1_555
F1 Fe1 2.471585 1_556
F2 Fe2 2.088314 1_455
F2 Li1 2.167588 1_555
F2 Fe5 2.188092 1_555
F2 Fe0 2.358496 1_555
F3 Fe7 2.120988 1_555
F3 Fe0 2.307649 1_555
F3 Fe1 2.316481 1_555
F3 Fe5 2.334547 1_555
F4 Li2 2.048492 1_555
F4 Li3 2.057980 1_655
F4 Fe2 2.093039 1_555
F4 Fe4 2.152461 1_555
F5 Li3 2.058250 1_555
F5 Li2 2.107394 1_555
F5 Fe3 2.117489 1_555
F5 Fe5 2.141100 1_555
F6 Fe5 2.068098 1_555
F6 Fe6 2.097083 1_455
F6 Li3 2.097085 1_555
F6 Li1 2.340038 1_545
F7 Fe7 2.029917 1_656
F7 Li3 2.106552 1_655
F7 Li0 2.106968 1_545
F7 Fe4 2.201149 1_555
F8 Fe7 2.108218 1_556
F8 Li2 2.111435 1_555
F8 Li0 2.141755 1_545
F8 Fe4 2.168104 1_555
F9 Fe6 2.028341 1_555
F9 Li2 2.067665 1_555
F9 Li1 2.090232 1_545
F9 Fe5 2.194407 1_555
F10 Fe2 1.980368 1_545
F10 Li0 2.013665 1_545
F10 Li3 2.053541 1_655
F10 Li2 2.124197 1_555
F11 Fe3 2.005833 1_545
F11 Li2 2.049904 1_555
F11 Li3 2.079929 1_555
F11 Li1 2.102456 1_545
