# generated using pymatgen
data_Li2VO2F
_symmetry_space_group_name_H-M   'P 1'
_cell_length_a   2.94679822
_cell_length_b   11.92789886
_cell_length_c   6.65765698
_cell_angle_alpha   77.11694674
_cell_angle_beta   77.21543536
_cell_angle_gamma   89.99746625
_symmetry_Int_Tables_number   1
_chemical_formula_structural   Li2VO2F
_chemical_formula_sum   'Li8 V4 O8 F4'
_cell_volume   222.16542434
_cell_formula_units_Z   4
loop_
 _symmetry_equiv_pos_site_id
 _symmetry_equiv_pos_as_xyz
  1  'x, y, z'
loop_
 _atom_site_type_symbol
 _atom_site_label
 _atom_site_symmetry_multiplicity
 _atom_site_fract_x
 _atom_site_fract_y
 _atom_site_fract_z
 _atom_site_occupancy
  Li  Li0  1  0.99998600  0.25584600  0.99999300  1
  Li  Li1  1  0.99999200  0.75582400  0.99997800  1
  Li  Li2  1  0.33333700  0.32749000  0.33334700  1
  Li  Li3  1  0.33332800  0.82750900  0.33336500  1
  Li  Li4  1  0.66651300  0.17884800  0.66695300  1
  Li  Li5  1  0.66649100  0.67883700  0.66699400  1
  Li  Li6  1  0.66685500  0.40451400  0.66628900  1
  Li  Li7  1  0.66687100  0.90453000  0.66625600  1
  V  V0  1  0.99629100  0.99574200  0.00741300  1
  V  V1  1  0.33706900  0.58758900  0.32591500  1
  V  V2  1  0.99626400  0.49555600  0.00747300  1
  V  V3  1  0.33708200  0.08778600  0.32588000  1
  O  O0  1  0.50041300  0.11718500  0.99917800  1
  O  O1  1  0.50038100  0.61724600  0.99922900  1
  O  O2  1  0.83299200  0.46613900  0.33416500  1
  O  O3  1  0.83301600  0.96607300  0.33412100  1
  O  O4  1  0.50378500  0.38514800  0.99242400  1
  O  O5  1  0.50380100  0.88508800  0.99239200  1
  O  O6  1  0.82955000  0.19816000  0.34096500  1
  O  O7  1  0.82952100  0.69823000  0.34101300  1
  F  F0  1  0.16660700  0.04166500  0.66664900  1
  F  F1  1  0.16661200  0.54165800  0.66664900  1
  F  F2  1  0.16662300  0.29166900  0.66667800  1
  F  F3  1  0.16662200  0.79166900  0.66667800  1
loop_
_geom_bond_atom_site_label_1
_geom_bond_atom_site_label_2
_geom_bond_distance
_geom_bond_site_symmetry_2
Li0 O4 2.125330 1_555
Li0 O4 2.125485 1_655
Li0 O6 2.162834 1_556
Li0 O0 2.215939 1_655
Li0 O0 2.215960 1_555
Li1 O5 2.124985 1_555
Li1 O5 2.125146 1_655
Li1 O7 2.163131 1_556
Li1 O1 2.215116 1_655
Li1 O1 2.215156 1_555
Li2 O6 2.125600 1_555
Li2 O6 2.125606 1_455
Li2 O4 2.162503 1_554
Li2 O2 2.215672 1_455
Li2 O2 2.216020 1_555
Li3 O7 2.125123 1_555
Li3 O7 2.125150 1_455
Li3 O5 2.162733 1_554
Li3 O3 2.214842 1_455
Li3 O3 2.215197 1_555
Li4 O6 2.075997 1_555
Li4 O0 2.113821 1_555
Li5 O7 2.075834 1_555
Li5 O1 2.113784 1_555
Li6 O4 2.076867 1_555
Li6 O2 2.113153 1_555
Li7 O5 2.076763 1_555
Li7 O3 2.113108 1_555
O0 V0 2.058263 1_546
O0 V0 2.058375 1_446
O0 V3 2.069331 1_556
O1 V2 2.060332 1_556
O1 V2 2.060404 1_456
O1 V1 2.069032 1_556
O2 V1 2.058309 1_655
O2 V1 2.058418 1_555
O2 V2 2.069253 1_555
O3 V3 2.060494 1_665
O3 V3 2.060630 1_565
O3 V0 2.069163 1_555
O4 V2 1.993342 1_456
O4 V2 1.993439 1_556
O5 V0 1.995284 1_456
O5 V0 1.995369 1_556
O6 V3 1.993101 1_655
O6 V3 1.993229 1_555
O7 V1 1.995279 1_655
O7 V1 1.995366 1_555
F0 V0 2.154260 1_446
F0 V3 2.154339 1_555
F0 Li7 2.201833 1_445
F0 Li7 2.202002 1_545
F0 Li4 2.202081 1_455
F0 Li4 2.202407 1_555
F1 V1 2.154074 1_555
F1 V2 2.154680 1_456
F1 Li6 2.201885 1_455
F1 Li6 2.202036 1_555
F1 Li5 2.202104 1_455
F1 Li5 2.202404 1_555
F2 Li6 1.995140 1_455
F2 Li4 1.995170 1_455
F2 Li4 1.995201 1_555
F2 Li6 1.995391 1_555
F2 Li0 2.107849 1_455
F2 Li2 2.107952 1_555
F3 Li5 1.995218 1_455
F3 Li7 1.995234 1_455
F3 Li5 1.995248 1_555
F3 Li7 1.995488 1_555
F3 Li1 2.107745 1_455
F3 Li3 2.107830 1_555
