# generated using pymatgen
data_NaH2BrO5
_symmetry_space_group_name_H-M   'P 1'
_cell_length_a   8.99167117
_cell_length_b   8.99167117
_cell_length_c   12.76253021
_cell_angle_alpha   70.94962409
_cell_angle_beta   70.94962409
_cell_angle_gamma   36.48564218
_symmetry_Int_Tables_number   1
_chemical_formula_structural   NaH2BrO5
_chemical_formula_sum   'Na4 H8 Br4 O20'
_cell_volume   576.18910551
_cell_formula_units_Z   4
loop_
 _symmetry_equiv_pos_site_id
 _symmetry_equiv_pos_as_xyz
  1  'x, y, z'
loop_
 _atom_site_type_symbol
 _atom_site_label
 _atom_site_symmetry_multiplicity
 _atom_site_fract_x
 _atom_site_fract_y
 _atom_site_fract_z
 _atom_site_occupancy
  Na  Na0  1  0.00000000  0.50000000  0.50000000  1
  Na  Na1  1  0.50000000  0.00000000  0.00000000  1
  Na  Na2  1  0.39917200  0.60082800  0.25000000  1
  Na  Na3  1  0.60082800  0.39917200  0.75000000  1
  H  H0  1  0.49230400  0.66580400  0.90935000  1
  H  H1  1  0.33419600  0.50769600  0.59065000  1
  H  H2  1  0.50769600  0.33419600  0.09065000  1
  H  H3  1  0.66580400  0.49230400  0.40935000  1
  H  H4  1  0.07604700  0.23467200  0.02634000  1
  H  H5  1  0.76532800  0.92395300  0.47366000  1
  H  H6  1  0.92395300  0.76532800  0.97366000  1
  H  H7  1  0.23467200  0.07604700  0.52634000  1
  Br  Br0  1  0.85489400  0.90129000  0.18514800  1
  Br  Br1  1  0.09871000  0.14510600  0.31485200  1
  Br  Br2  1  0.14510600  0.09871000  0.81485200  1
  Br  Br3  1  0.90129000  0.85489400  0.68514800  1
  O  O0  1  0.76446000  0.89480200  0.40512600  1
  O  O1  1  0.10519800  0.23554000  0.09487400  1
  O  O2  1  0.23554000  0.10519800  0.59487400  1
  O  O3  1  0.89480200  0.76446000  0.90512600  1
  O  O4  1  0.76814700  0.83786300  0.12853600  1
  O  O5  1  0.16213700  0.23185300  0.37146400  1
  O  O6  1  0.23185300  0.16213700  0.87146400  1
  O  O7  1  0.83786300  0.76814700  0.62853600  1
  O  O8  1  0.11378200  0.77940300  0.10492700  1
  O  O9  1  0.22059700  0.88621800  0.39507300  1
  O  O10  1  0.88621800  0.22059700  0.89507300  1
  O  O11  1  0.77940300  0.11378200  0.60492700  1
  O  O12  1  0.60668500  0.27368300  0.14585900  1
  O  O13  1  0.72631700  0.39331500  0.35414100  1
  O  O14  1  0.39331500  0.72631700  0.85414100  1
  O  O15  1  0.27368300  0.60668500  0.64585900  1
  O  O16  1  0.28978600  0.96831900  0.14527100  1
  O  O17  1  0.03168100  0.71021400  0.35472900  1
  O  O18  1  0.71021400  0.03168100  0.85472900  1
  O  O19  1  0.96831900  0.28978600  0.64527100  1
loop_
_geom_bond_atom_site_label_1
_geom_bond_atom_site_label_2
_geom_bond_distance
_geom_bond_site_symmetry_2
Na0 O19 2.307528 1_455
Na0 O17 2.307528 1_555
Na0 O0 2.309119 1_455
Na0 O2 2.309119 1_555
Na0 O7 2.449144 1_455
Na0 O5 2.449144 1_555
Na1 O16 2.307528 1_545
Na1 O18 2.307528 1_554
Na1 O3 2.309119 1_544
Na1 O1 2.309119 1_555
Na1 O4 2.449144 1_545
Na1 O6 2.449144 1_554
Na2 O12 2.451209 1_555
Na2 O13 2.451209 1_555
Na2 O17 2.534090 1_555
Na2 O16 2.534090 1_555
Na2 O8 2.669551 1_555
Na2 O9 2.669551 1_555
Na3 O15 2.451209 1_555
Na3 O14 2.451209 1_555
Na3 O18 2.534090 1_555
Na3 O19 2.534090 1_555
Na3 O11 2.669551 1_555
Na3 O10 2.669551 1_555
H0 O14 0.982412 1_555
H1 O15 0.982412 1_555
H2 O12 0.982412 1_555
H3 O13 0.982412 1_555
H4 O1 0.995599 1_555
H4 O6 1.964598 1_554
H4 O16 1.965501 1_545
H4 Na1 2.406080 1_555
H5 O0 0.995599 1_555
H5 O7 1.964598 1_555
H5 O17 1.965501 1_655
H5 Na0 2.406080 1_655
H6 O3 0.995599 1_555
H6 O4 1.964598 1_556
H6 O18 1.965501 1_565
H6 Na1 2.406080 1_566
H7 O2 0.995599 1_555
H7 O5 1.964598 1_555
H7 O19 1.965501 1_455
H7 Na0 2.406080 1_555
Br0 O8 1.656033 1_655
Br0 O4 1.675674 1_555
Br0 O12 2.015472 1_565
Br1 O9 1.656033 1_545
Br1 O5 1.675674 1_555
Br1 O13 2.015472 1_455
Br2 O10 1.656033 1_455
Br2 O6 1.675674 1_555
Br2 O14 2.015472 1_545
Br3 O11 1.656033 1_565
Br3 O7 1.675674 1_555
Br3 O15 2.015472 1_655
O0 O17 1.488972 1_655
O1 O16 1.488972 1_545
O18 O3 1.488972 1_545
O19 O2 1.488972 1_655
