# generated using pymatgen
data_LiVF6
_symmetry_space_group_name_H-M   'P 1'
_cell_length_a   5.00240800
_cell_length_b   8.69418700
_cell_length_c   9.69381300
_cell_angle_alpha   90.00000000
_cell_angle_beta   90.00000000
_cell_angle_gamma   90.00000000
_symmetry_Int_Tables_number   1
_chemical_formula_structural   LiVF6
_chemical_formula_sum   'Li4 V4 F24'
_cell_volume   421.60206064
_cell_formula_units_Z   4
loop_
 _symmetry_equiv_pos_site_id
 _symmetry_equiv_pos_as_xyz
  1  'x, y, z'
loop_
 _atom_site_type_symbol
 _atom_site_label
 _atom_site_symmetry_multiplicity
 _atom_site_fract_x
 _atom_site_fract_y
 _atom_site_fract_z
 _atom_site_occupancy
  Li  Li0  1  0.01466800  0.87588100  0.11911900  1
  Li  Li1  1  0.51466800  0.37588100  0.38088100  1
  Li  Li2  1  0.01466800  0.62411900  0.61911900  1
  Li  Li3  1  0.51466800  0.12411900  0.88088100  1
  V  V0  1  0.00012600  0.24735000  0.12861900  1
  V  V1  1  0.50012600  0.74735000  0.37138100  1
  V  V2  1  0.00012600  0.25265000  0.62861900  1
  V  V3  1  0.50012600  0.75265000  0.87138100  1
  F  F0  1  0.82925200  0.10458800  0.01525900  1
  F  F1  1  0.29118200  0.24303400  0.01504100  1
  F  F2  1  0.85549700  0.39657600  0.03187800  1
  F  F3  1  0.12987600  0.07446400  0.21530900  1
  F  F4  1  0.17827400  0.37062300  0.24645600  1
  F  F5  1  0.71543800  0.24506900  0.24602600  1
  F  F6  1  0.21543800  0.74506900  0.25397400  1
  F  F7  1  0.67827400  0.87062300  0.25354400  1
  F  F8  1  0.62987600  0.57446400  0.28469100  1
  F  F9  1  0.35549700  0.89657600  0.46812200  1
  F  F10  1  0.79118200  0.74303400  0.48495900  1
  F  F11  1  0.32925200  0.60458800  0.48474100  1
  F  F12  1  0.82925200  0.39541200  0.51525900  1
  F  F13  1  0.29118200  0.25696600  0.51504100  1
  F  F14  1  0.85549700  0.10342400  0.53187800  1
  F  F15  1  0.12987600  0.42553600  0.71530900  1
  F  F16  1  0.17827400  0.12937700  0.74645600  1
  F  F17  1  0.71543800  0.25493100  0.74602600  1
  F  F18  1  0.21543800  0.75493100  0.75397400  1
  F  F19  1  0.67827400  0.62937700  0.75354400  1
  F  F20  1  0.62987600  0.92553600  0.78469100  1
  F  F21  1  0.35549700  0.60342400  0.96812200  1
  F  F22  1  0.79118200  0.75696600  0.98495900  1
  F  F23  1  0.32925200  0.89541200  0.98474100  1
loop_
_geom_bond_atom_site_label_1
_geom_bond_atom_site_label_2
_geom_bond_distance
_geom_bond_site_symmetry_2
F0 V0 1.865151 1_655
F0 Li3 2.049915 1_554
F0 Li0 2.414078 1_645
F0 F3 2.467959 1_655
F0 F2 2.547091 1_555
F0 F1 2.605468 1_655
F0 F5 2.611535 1_555
F1 V0 1.825787 1_555
F1 Li3 2.002522 1_554
F1 F3 2.562795 1_555
F2 V0 1.756740 1_655
F3 V0 1.840326 1_555
F3 Li0 2.045107 1_545
F3 F5 2.566489 1_455
F4 V0 1.802131 1_555
F4 Li1 2.128822 1_555
F5 V0 1.823142 1_655
F5 Li1 2.002766 1_555
F6 V1 1.823142 1_555
F6 Li0 2.002766 1_555
F6 F8 2.566489 1_555
F7 V1 1.802131 1_555
F7 Li0 2.128822 1_655
F8 V1 1.840326 1_555
F8 Li1 2.045107 1_555
F9 V1 1.756740 1_555
F10 V1 1.825787 1_555
F10 Li2 2.002522 1_655
F10 F8 2.562795 1_555
F10 F11 2.605468 1_555
F11 V1 1.865151 1_555
F11 Li2 2.049915 1_555
F11 Li1 2.414078 1_555
F11 F8 2.467959 1_555
F11 F9 2.547091 1_555
F11 F6 2.611535 1_555
F12 V2 1.865151 1_655
F12 Li1 2.049915 1_555
F12 Li2 2.414078 1_655
F12 F15 2.467959 1_655
F12 F14 2.547091 1_555
F12 F13 2.605468 1_655
F12 F17 2.611535 1_555
F13 V2 1.825787 1_555
F13 Li1 2.002522 1_555
F13 F15 2.562795 1_555
F14 V2 1.756740 1_655
F15 V2 1.840326 1_555
F15 Li2 2.045107 1_555
F15 F17 2.566489 1_455
F16 V2 1.802131 1_555
F16 Li3 2.128822 1_555
F17 V2 1.823142 1_655
F17 Li3 2.002766 1_555
F18 V3 1.823142 1_555
F18 Li2 2.002766 1_555
F18 F20 2.566489 1_555
F18 F23 2.611535 1_555
F19 V3 1.802131 1_555
F19 Li2 2.128822 1_655
F20 V3 1.840326 1_555
F20 Li3 2.045107 1_565
F20 F23 2.467959 1_555
F20 F22 2.562795 1_555
F21 V3 1.756740 1_555
F21 F23 2.547091 1_555
F22 V3 1.825787 1_555
F22 Li0 2.002522 1_656
F22 F23 2.605468 1_555
F23 V3 1.865151 1_555
F23 Li0 2.049915 1_556
F23 Li3 2.414078 1_565
