# generated using pymatgen
data_Pb(BrO3)2
_symmetry_space_group_name_H-M   'P 1'
_cell_length_a   7.48018235
_cell_length_b   7.48018235
_cell_length_c   8.28809437
_cell_angle_alpha   54.12012256
_cell_angle_beta   125.87987744
_cell_angle_gamma   118.10272988
_symmetry_Int_Tables_number   1
_chemical_formula_structural   Pb(BrO3)2
_chemical_formula_sum   'Pb2 Br4 O12'
_cell_volume   298.64710563
_cell_formula_units_Z   2
loop_
 _symmetry_equiv_pos_site_id
 _symmetry_equiv_pos_as_xyz
  1  'x, y, z'
loop_
 _atom_site_type_symbol
 _atom_site_label
 _atom_site_symmetry_multiplicity
 _atom_site_fract_x
 _atom_site_fract_y
 _atom_site_fract_z
 _atom_site_occupancy
  Pb  Pb0  1  0.84047085  0.84047085  0.75000000  1
  Pb  Pb1  1  0.15952915  0.15952915  0.25000000  1
  Br  Br0  1  0.32289931  0.70515563  0.80675914  1
  Br  Br1  1  0.29484437  0.67710069  0.30675914  1
  Br  Br2  1  0.70515563  0.32289931  0.69324086  1
  Br  Br3  1  0.67710069  0.29484437  0.19324086  1
  O  O0  1  0.08272316  0.80180097  0.62909415  1
  O  O1  1  0.23907989  0.42589026  0.89742558  1
  O  O2  1  0.41667325  0.77965753  0.62974857  1
  O  O3  1  0.19819903  0.91727684  0.12909415  1
  O  O4  1  0.57410974  0.76092011  0.39742558  1
  O  O5  1  0.22034247  0.58332675  0.12974857  1
  O  O6  1  0.77965753  0.41667325  0.87025143  1
  O  O7  1  0.42589026  0.23907989  0.60257442  1
  O  O8  1  0.80180097  0.08272316  0.87090585  1
  O  O9  1  0.58332675  0.22034247  0.37025143  1
  O  O10  1  0.76092011  0.57410974  0.10257442  1
  O  O11  1  0.91727684  0.19819903  0.37090585  1
loop_
_geom_bond_atom_site_label_1
_geom_bond_atom_site_label_2
_geom_bond_distance
_geom_bond_site_symmetry_2
Br0 O0 1.671345 1_555
Br0 O1 1.673276 1_555
Br0 O2 1.683612 1_555
Br1 O3 1.671345 1_555
Br1 O4 1.673276 1_555
Br1 O5 1.683612 1_555
Br2 O8 1.671345 1_555
Br2 O7 1.673276 1_555
Br2 O6 1.683612 1_555
Br3 O11 1.671345 1_555
Br3 O10 1.673276 1_555
Br3 O9 1.683612 1_555
O0 Pb0 2.708061 1_455
O0 Pb1 2.859168 1_565
O1 Pb1 2.638096 1_556
O2 Pb0 2.592118 1_555
O2 Pb1 3.041341 1_565
O3 Pb1 2.708061 1_565
O3 Pb0 2.859168 1_454
O4 Pb0 2.638096 1_555
O5 Pb1 2.592118 1_555
O5 Pb0 3.041341 1_454
O6 Pb0 2.592118 1_555
O6 Pb1 3.041341 1_656
O7 Pb1 2.638096 1_555
O8 Pb0 2.708061 1_545
O8 Pb1 2.859168 1_656
O9 Pb1 2.592118 1_555
O9 Pb0 3.041341 1_545
O10 Pb0 2.638096 1_554
O11 Pb1 2.708061 1_655
O11 Pb0 2.859168 1_545
