# generated using pymatgen
data_V2O3F
_symmetry_space_group_name_H-M   'P 1'
_cell_length_a   9.82000188
_cell_length_b   9.82000188
_cell_length_c   10.78065641
_cell_angle_alpha   30.67410352
_cell_angle_beta   30.67410352
_cell_angle_gamma   34.33768659
_symmetry_Int_Tables_number   1
_chemical_formula_structural   V2O3F
_chemical_formula_sum   'V8 O12 F4'
_cell_volume   255.37171401
_cell_formula_units_Z   4
loop_
 _symmetry_equiv_pos_site_id
 _symmetry_equiv_pos_as_xyz
  1  'x, y, z'
loop_
 _atom_site_type_symbol
 _atom_site_label
 _atom_site_symmetry_multiplicity
 _atom_site_fract_x
 _atom_site_fract_y
 _atom_site_fract_z
 _atom_site_occupancy
  V  V0  1  0.23363700  0.23363700  0.55996400  1
  V  V1  1  0.00000000  0.00000000  0.50000000  1
  V  V2  1  0.38731300  0.85683700  0.00850200  1
  V  V3  1  0.61268700  0.14316300  0.99149800  1
  V  V4  1  0.14316300  0.61268700  0.99149800  1
  V  V5  1  0.76636300  0.76636300  0.44003600  1
  V  V6  1  0.50000000  0.50000000  0.50000000  1
  V  V7  1  0.85683700  0.38731300  0.00850200  1
  O  O0  1  0.09267200  0.60155200  0.70476400  1
  O  O1  1  0.14733500  0.64269200  0.30687800  1
  O  O2  1  0.90732800  0.39844800  0.29523600  1
  O  O3  1  0.39844800  0.90732800  0.29523600  1
  O  O4  1  0.57052200  0.57052200  0.20965100  1
  O  O5  1  0.42947800  0.42947800  0.79034900  1
  O  O6  1  0.16627600  0.16627600  0.82500000  1
  O  O7  1  0.35730800  0.85266500  0.69312200  1
  O  O8  1  0.85266500  0.35730800  0.69312200  1
  O  O9  1  0.60155200  0.09267200  0.70476400  1
  O  O10  1  0.64269200  0.14733500  0.30687800  1
  O  O11  1  0.83372400  0.83372400  0.17500000  1
  F  F0  1  0.92578300  0.92578300  0.79567000  1
  F  F1  1  0.32724700  0.32724700  0.19837000  1
  F  F2  1  0.07421700  0.07421700  0.20433000  1
  F  F3  1  0.67275300  0.67275300  0.80163000  1
loop_
_geom_bond_atom_site_label_1
_geom_bond_atom_site_label_2
_geom_bond_distance
_geom_bond_site_symmetry_2
O0 V7 1.913954 1_456
O0 V1 1.930894 1_565
O0 V6 1.969159 1_555
O1 V5 1.946595 1_455
O1 V0 1.949595 1_555
O1 V2 1.957406 1_555
O2 V4 1.913954 1_654
O2 V1 1.930894 1_655
O2 V6 1.969159 1_555
O3 V3 1.913954 1_564
O3 V1 1.930894 1_565
O3 V6 1.969159 1_555
O4 V7 1.927141 1_555
O4 V2 1.927141 1_555
O4 V6 2.022725 1_555
O5 V4 1.927141 1_555
O5 V3 1.927141 1_555
O5 V6 2.022725 1_555
O6 V0 1.805363 1_555
O6 V7 2.002985 1_456
O6 V2 2.002985 1_546
O7 V0 1.946595 1_565
O7 V5 1.949595 1_555
O7 V4 1.957406 1_555
O8 V0 1.946595 1_655
O8 V5 1.949595 1_555
O8 V3 1.957406 1_555
O9 V2 1.913954 1_546
O9 V1 1.930894 1_655
O9 V6 1.969159 1_555
O10 V5 1.946595 1_545
O10 V0 1.949595 1_555
O10 V7 1.957406 1_555
O11 V5 1.805363 1_555
O11 V3 2.002985 1_564
O11 V4 2.002985 1_654
F0 V1 2.026713 1_665
F0 V4 2.052960 1_655
F0 V3 2.052960 1_565
F0 O2 2.784071 1_556
F0 O3 2.784071 1_556
F0 O9 2.787694 1_565
F0 O0 2.787694 1_655
F0 O3 2.810800 1_655
F0 O2 2.810800 1_565
F0 O8 2.824330 1_565
F0 O7 2.824330 1_655
F1 V4 1.977937 1_554
F1 V3 1.977937 1_554
F1 V0 2.439971 1_555
F2 V1 2.026713 1_555
F2 V7 2.052960 1_455
F2 V2 2.052960 1_545
F2 O0 2.784071 1_554
F2 O9 2.784071 1_554
F2 O2 2.787694 1_455
F2 O3 2.787694 1_545
F2 O9 2.810800 1_455
F2 O0 2.810800 1_545
F2 O1 2.824330 1_545
F2 O10 2.824330 1_455
F3 V2 1.977937 1_556
F3 V7 1.977937 1_556
F3 V5 2.439971 1_555
