# generated using pymatgen
data_KV4O10
_symmetry_space_group_name_H-M   'P 1'
_cell_length_a   6.09556936
_cell_length_b   6.09556936
_cell_length_c   20.58032200
_cell_angle_alpha   90.00000000
_cell_angle_beta   90.00000000
_cell_angle_gamma   144.58181747
_symmetry_Int_Tables_number   1
_chemical_formula_structural   KV4O10
_chemical_formula_sum   'K2 V8 O20'
_cell_volume   443.16351805
_cell_formula_units_Z   2
loop_
 _symmetry_equiv_pos_site_id
 _symmetry_equiv_pos_as_xyz
  1  'x, y, z'
loop_
 _atom_site_type_symbol
 _atom_site_label
 _atom_site_symmetry_multiplicity
 _atom_site_fract_x
 _atom_site_fract_y
 _atom_site_fract_z
 _atom_site_occupancy
  K  K0  1  0.60421800  0.39578200  0.25000000  1
  K  K1  1  0.39578200  0.60421800  0.75000000  1
  V  V0  1  0.77181000  0.22819000  0.08110400  1
  V  V1  1  0.77181000  0.22819000  0.41889600  1
  V  V2  1  0.93323100  0.06676900  0.57854200  1
  V  V3  1  0.93323100  0.06676900  0.92145800  1
  V  V4  1  0.06676900  0.93323100  0.07854200  1
  V  V5  1  0.06676900  0.93323100  0.42145800  1
  V  V6  1  0.22819000  0.77181000  0.58110400  1
  V  V7  1  0.22819000  0.77181000  0.91889600  1
  O  O0  1  0.91891700  0.08108300  0.04856600  1
  O  O1  1  0.78654400  0.21345600  0.34019700  1
  O  O2  1  0.78654400  0.21345600  0.15980300  1
  O  O3  1  0.91891700  0.08108300  0.45143400  1
  O  O4  1  0.60107000  0.39893000  0.06347300  1
  O  O5  1  0.94922900  0.05077100  0.65788400  1
  O  O6  1  0.75976600  0.24023400  0.56068500  1
  O  O7  1  0.94922900  0.05077100  0.84211600  1
  O  O8  1  0.75976600  0.24023400  0.93931500  1
  O  O9  1  0.60107000  0.39893000  0.43652700  1
  O  O10  1  0.24023400  0.75976600  0.06068500  1
  O  O11  1  0.05077100  0.94922900  0.15788400  1
  O  O12  1  0.24023400  0.75976600  0.43931500  1
  O  O13  1  0.21345600  0.78654400  0.84019700  1
  O  O14  1  0.05077100  0.94922900  0.34211600  1
  O  O15  1  0.21345600  0.78654400  0.65980300  1
  O  O16  1  0.08108300  0.91891700  0.54856600  1
  O  O17  1  0.08108300  0.91891700  0.95143400  1
  O  O18  1  0.39893000  0.60107000  0.56347300  1
  O  O19  1  0.39893000  0.60107000  0.93652700  1
loop_
_geom_bond_atom_site_label_1
_geom_bond_atom_site_label_2
_geom_bond_distance
_geom_bond_site_symmetry_2
K0 O14 2.723456 1_545
K0 O11 2.723456 1_545
K0 O14 2.723456 1_655
K0 O11 2.723456 1_655
K0 O1 2.815902 1_555
K0 O2 2.815902 1_555
K1 O5 2.723456 1_455
K1 O7 2.723456 1_455
K1 O5 2.723456 1_565
K1 O7 2.723456 1_565
K1 O13 2.815902 1_555
K1 O15 2.815902 1_555
O0 V4 1.824532 1_645
O0 V0 1.834970 1_555
O1 V1 1.628664 1_555
O2 V0 1.628664 1_555
O3 V5 1.824532 1_645
O3 V1 1.834970 1_555
O4 V4 1.921674 1_655
O4 V4 1.921674 1_545
O4 V0 2.015805 1_555
O5 V2 1.643420 1_555
O6 V6 1.936242 1_545
O6 V6 1.936242 1_655
O6 V2 2.047772 1_555
O7 V3 1.643420 1_555
O8 V7 1.936242 1_545
O8 V7 1.936242 1_655
O8 V3 2.047772 1_555
O9 V5 1.921674 1_655
O9 V5 1.921674 1_545
O9 V1 2.015805 1_555
O10 V0 1.936242 1_455
O10 V0 1.936242 1_565
O10 V4 2.047772 1_555
O11 V4 1.643420 1_555
O12 V1 1.936242 1_455
O12 V1 1.936242 1_565
O12 V5 2.047772 1_555
O13 V7 1.628664 1_555
O14 V5 1.643420 1_555
O15 V6 1.628664 1_555
O16 V2 1.824532 1_465
O16 V6 1.834970 1_555
O17 V3 1.824532 1_465
O17 V7 1.834970 1_555
O18 V2 1.921674 1_565
O18 V2 1.921674 1_455
O18 V6 2.015805 1_555
O19 V3 1.921674 1_565
O19 V3 1.921674 1_455
O19 V7 2.015805 1_555
