# generated using pymatgen
data_Li3Cu3(PO4)2
_symmetry_space_group_name_H-M   'P 1'
_cell_length_a   5.11569400
_cell_length_b   5.40563723
_cell_length_c   6.24287312
_cell_angle_alpha   90.15041485
_cell_angle_beta   90.07596459
_cell_angle_gamma   90.32362907
_symmetry_Int_Tables_number   1
_chemical_formula_structural   Li3Cu3(PO4)2
_chemical_formula_sum   'Li3 Cu3 P2 O8'
_cell_volume   172.63432451
_cell_formula_units_Z   1
loop_
 _symmetry_equiv_pos_site_id
 _symmetry_equiv_pos_as_xyz
  1  'x, y, z'
loop_
 _atom_site_type_symbol
 _atom_site_label
 _atom_site_symmetry_multiplicity
 _atom_site_fract_x
 _atom_site_fract_y
 _atom_site_fract_z
 _atom_site_occupancy
  Li  Li0  1  0.49370000  0.15464100  0.00007300  1
  Li  Li1  1  0.99601400  0.32688300  0.75174500  1
  Li  Li2  1  0.49315600  0.67410500  0.25403300  1
  Cu  Cu0  1  0.49288000  0.66399800  0.73937000  1
  Cu  Cu1  1  0.99390600  0.81735200  0.50023500  1
  Cu  Cu2  1  0.00545700  0.33204400  0.25084300  1
  P  P0  1  0.99873400  0.83085700  0.00046000  1
  P  P1  1  0.49809200  0.18051000  0.50049800  1
  O  O0  1  0.88926000  0.09884600  0.98786100  1
  O  O1  1  0.30173700  0.83088200  0.01149400  1
  O  O2  1  0.90585800  0.67922300  0.79955300  1
  O  O3  1  0.38217700  0.29899900  0.70862200  1
  O  O4  1  0.80092900  0.18957200  0.51221100  1
  O  O5  1  0.40447300  0.90471000  0.48778800  1
  O  O6  1  0.40736200  0.31814200  0.29360300  1
  O  O7  1  0.87885700  0.69923600  0.20161200  1
loop_
_geom_bond_atom_site_label_1
_geom_bond_atom_site_label_2
_geom_bond_distance
_geom_bond_site_symmetry_2
Li0 O1 2.003450 1_545
Li0 O0 2.049091 1_554
Li0 O3 2.062696 1_554
Li0 O6 2.081401 1_555
Li1 O4 1.940346 1_555
Li1 O2 1.984108 1_555
Li1 O0 1.998657 1_555
Li1 O3 2.000581 1_655
Li2 O5 1.971778 1_555
Li2 O6 1.987327 1_555
Li2 O1 1.995479 1_555
Li2 O7 2.004421 1_555
Cu0 O3 2.058058 1_555
Cu0 O5 2.092828 1_555
Cu0 O2 2.146410 1_555
Cu0 O1 2.159242 1_556
Cu1 O7 2.053327 1_555
Cu1 O2 2.063455 1_555
Cu1 O5 2.151712 1_655
Cu1 O4 2.247334 1_565
Cu2 O6 2.074737 1_555
Cu2 O4 2.086219 1_455
Cu2 O7 2.114464 1_455
Cu2 O0 2.148461 1_454
O0 P0 1.558224 1_546
O1 P0 1.551508 1_455
O2 P0 1.568231 1_556
O3 P1 1.565888 1_555
O4 P1 1.551340 1_555
O5 P1 1.565115 1_565
O6 P1 1.563518 1_555
O7 P0 1.568776 1_555
