# generated using pymatgen
data_K3Li2Ta6(PO8)3
_symmetry_space_group_name_H-M   'P 1'
_cell_length_a   8.47735965
_cell_length_b   8.47735965
_cell_length_c   8.47735978
_cell_angle_alpha   103.34322202
_cell_angle_beta   103.34322202
_cell_angle_gamma   103.34321284
_symmetry_Int_Tables_number   1
_chemical_formula_structural   K3Li2Ta6(PO8)3
_chemical_formula_sum   'K3 Li2 Ta6 P3 O24'
_cell_volume   550.21093485
_cell_formula_units_Z   1
loop_
 _symmetry_equiv_pos_site_id
 _symmetry_equiv_pos_as_xyz
  1  'x, y, z'
loop_
 _atom_site_type_symbol
 _atom_site_label
 _atom_site_symmetry_multiplicity
 _atom_site_fract_x
 _atom_site_fract_y
 _atom_site_fract_z
 _atom_site_occupancy
  K  K0  1  0.08547700  0.69928600  0.39623300  1
  K  K1  1  0.69928600  0.39623300  0.08547700  1
  K  K2  1  0.39623300  0.08547700  0.69928600  1
  Li  Li0  1  0.63828700  0.63828700  0.63828700  1
  Li  Li1  1  0.36223500  0.36223500  0.36223500  1
  Ta  Ta0  1  0.84302900  0.97521200  0.65291900  1
  Ta  Ta1  1  0.65291900  0.84302900  0.97521200  1
  Ta  Ta2  1  0.15678000  0.34661200  0.02420400  1
  Ta  Ta3  1  0.97521200  0.65291900  0.84302900  1
  Ta  Ta4  1  0.02420400  0.15678000  0.34661200  1
  Ta  Ta5  1  0.34661200  0.02420400  0.15678000  1
  P  P0  1  0.50023500  0.71860700  0.28314700  1
  P  P1  1  0.28314700  0.50023500  0.71860700  1
  P  P2  1  0.71860700  0.28314700  0.50023500  1
  O  O0  1  0.50037600  0.97579000  0.02554400  1
  O  O1  1  0.84541200  0.00046100  0.15446200  1
  O  O2  1  0.41673800  0.86398500  0.29789500  1
  O  O3  1  0.68448800  0.92937600  0.79109700  1
  O  O4  1  0.15446200  0.84541200  0.00046100  1
  O  O5  1  0.58120800  0.70223400  0.13601100  1
  O  O6  1  0.63775700  0.75270600  0.45366800  1
  O  O7  1  0.36204600  0.54747100  0.24975100  1
  O  O8  1  0.92937600  0.79109700  0.68448800  1
  O  O9  1  0.13601100  0.58120800  0.70223400  1
  O  O10  1  0.45366800  0.63775700  0.75270600  1
  O  O11  1  0.79109700  0.68448800  0.92937600  1
  O  O12  1  0.02554400  0.50037600  0.97579000  1
  O  O13  1  0.07068400  0.31673800  0.20946000  1
  O  O14  1  0.24975100  0.36204600  0.54747100  1
  O  O15  1  0.29789500  0.41673800  0.86398500  1
  O  O16  1  0.31673800  0.20946000  0.07068400  1
  O  O17  1  0.75270600  0.45366800  0.63775700  1
  O  O18  1  0.54747100  0.24975100  0.36204600  1
  O  O19  1  0.86398500  0.29789500  0.41673800  1
  O  O20  1  0.20946000  0.07068400  0.31673800  1
  O  O21  1  0.70223400  0.13601100  0.58120800  1
  O  O22  1  0.00046100  0.15446200  0.84541200  1
  O  O23  1  0.97579000  0.02554400  0.50037600  1
loop_
_geom_bond_atom_site_label_1
_geom_bond_atom_site_label_2
_geom_bond_distance
_geom_bond_site_symmetry_2
K0 O9 2.966189 1_555
K0 O8 3.068951 1_455
K0 O23 3.119722 1_465
K0 O2 3.215357 1_555
K0 O13 3.223402 1_555
K0 O7 3.270217 1_555
K0 O20 3.354192 1_565
K0 O12 3.435111 1_554
K0 O19 3.550926 1_455
K0 K1 3.643018 1_455
K0 K2 3.643018 1_565
K1 O5 2.966189 1_555
K1 O11 3.068951 1_554
K1 O12 3.119723 1_654
K1 O19 3.215357 1_555
K1 O16 3.223402 1_555
K1 O18 3.270217 1_555
K1 O13 3.354192 1_655
K1 O0 3.435112 1_545
K1 O15 3.550926 1_554
K1 K2 3.643017 1_554
K2 O21 2.966189 1_555
K2 O3 3.068951 1_545
K2 O0 3.119723 1_546
K2 O15 3.215357 1_555
K2 O20 3.223402 1_555
K2 O14 3.270217 1_555
K2 O16 3.354192 1_556
K2 O23 3.435111 1_455
K2 O2 3.550926 1_545
Li0 O17 2.022327 1_555
Li0 O10 2.022328 1_555
Li0 O6 2.022328 1_555
Li0 O11 2.401069 1_555
Li0 O3 2.401069 1_555
Li0 O8 2.401069 1_555
Li1 O18 2.016626 1_555
Li1 O7 2.016626 1_555
Li1 O14 2.016626 1_555
Li1 O16 2.405574 1_555
Li1 O13 2.405574 1_555
Li1 O20 2.405575 1_555
O0 Ta5 1.952145 1_565
O0 Ta1 1.955962 1_554
O1 Ta4 1.908867 1_655
O1 Ta1 1.915020 1_544
O2 P0 1.551741 1_555
O2 Ta5 2.103262 1_565
O3 Ta1 1.916582 1_555
O3 Ta0 2.006289 1_555
O4 Ta5 1.908867 1_565
O4 Ta3 1.915020 1_454
O5 P0 1.550982 1_555
O5 Ta1 2.109720 1_554
O6 P0 1.551154 1_555
O6 Ta0 2.257636 1_555
O6 O8 2.673622 1_555
O7 P0 1.558896 1_555
O7 Ta2 2.275346 1_555
O8 Ta0 1.916581 1_555
O8 Ta3 2.006289 1_555
O9 P1 1.550982 1_555
O9 Ta3 2.109720 1_455
O10 P1 1.551154 1_555
O10 Ta1 2.257636 1_555
O10 O3 2.673622 1_555
O11 Ta3 1.916582 1_555
O11 Ta1 2.006289 1_555
O11 O17 2.673622 1_555
O12 Ta2 1.952145 1_556
O12 Ta3 1.955962 1_455
O13 Ta2 1.921090 1_555
O13 Ta4 2.009590 1_555
O13 O7 2.667525 1_555
O14 P1 1.558896 1_555
O14 Ta4 2.275346 1_555
O14 O20 2.667524 1_555
O15 P1 1.551741 1_555
O15 Ta2 2.103262 1_556
O16 Ta5 1.921090 1_555
O16 Ta2 2.009590 1_555
O16 O18 2.667524 1_555
O17 P2 1.551154 1_555
O17 Ta3 2.257636 1_555
O18 P2 1.558896 1_555
O18 Ta5 2.275346 1_555
O19 P2 1.551741 1_555
O19 Ta4 2.103262 1_655
O20 Ta4 1.921090 1_555
O20 Ta5 2.009590 1_555
O21 P2 1.550982 1_555
O21 Ta0 2.109720 1_545
O22 Ta2 1.908867 1_556
O22 Ta0 1.915020 1_445
O23 Ta4 1.952145 1_655
O23 Ta0 1.955962 1_545
