# generated using pymatgen
data_Li5Mn8(BO3)8
_symmetry_space_group_name_H-M   'P 1'
_cell_length_a   5.33516500
_cell_length_b   9.02861706
_cell_length_c   10.39833109
_cell_angle_alpha   90.45816064
_cell_angle_beta   92.27762954
_cell_angle_gamma   90.30036482
_symmetry_Int_Tables_number   1
_chemical_formula_structural   Li5Mn8(BO3)8
_chemical_formula_sum   'Li5 Mn8 B8 O24'
_cell_volume   500.45944208
_cell_formula_units_Z   1
loop_
 _symmetry_equiv_pos_site_id
 _symmetry_equiv_pos_as_xyz
  1  'x, y, z'
loop_
 _atom_site_type_symbol
 _atom_site_label
 _atom_site_symmetry_multiplicity
 _atom_site_fract_x
 _atom_site_fract_y
 _atom_site_fract_z
 _atom_site_occupancy
  Li  Li0  1  0.33344400  0.50374700  0.41339100  1
  Li  Li1  1  0.63807900  0.47428100  0.66680400  1
  Li  Li2  1  0.64159400  0.51756100  0.16683800  1
  Li  Li3  1  0.86987200  0.00048300  0.91967900  1
  Li  Li4  1  0.84699100  0.99221200  0.41706300  1
  Mn  Mn0  1  0.14067300  0.69541700  0.62808800  1
  Mn  Mn1  1  0.15079800  0.31348500  0.13432000  1
  Mn  Mn2  1  0.35208400  0.19281400  0.87322000  1
  Mn  Mn3  1  0.32814700  0.83980100  0.36695400  1
  Mn  Mn4  1  0.66417100  0.14033200  0.62901300  1
  Mn  Mn5  1  0.65628900  0.84807200  0.12442200  1
  Mn  Mn6  1  0.84033000  0.65143900  0.88333000  1
  Mn  Mn7  1  0.84017800  0.33615200  0.39026800  1
  B  B0  1  0.16504200  0.34584300  0.63127100  1
  B  B1  1  0.15560900  0.65732700  0.13092500  1
  B  B2  1  0.34147400  0.84733100  0.86918700  1
  B  B3  1  0.33085100  0.16816900  0.38387400  1
  B  B4  1  0.67510300  0.80905300  0.61804300  1
  B  B5  1  0.68123100  0.18687300  0.11885200  1
  B  B6  1  0.82589800  0.31008700  0.86984700  1
  B  B7  1  0.82020900  0.67776300  0.37594100  1
  O  O0  1  0.06447500  0.30311400  0.92699000  1
  O  O1  1  0.06700000  0.67827700  0.43062200  1
  O  O2  1  0.20922200  0.72235200  0.81550700  1
  O  O3  1  0.21966200  0.97819700  0.87861000  1
  O  O4  1  0.18319600  0.04553500  0.38217200  1
  O  O5  1  0.22895900  0.30456100  0.34408500  1
  O  O6  1  0.28860400  0.47499500  0.60492300  1
  O  O7  1  0.30254000  0.22865500  0.68796400  1
  O  O8  1  0.27827000  0.52439800  0.13776700  1
  O  O9  1  0.28786600  0.78440200  0.16813300  1
  O  O10  1  0.42642300  0.80690200  0.57472100  1
  O  O11  1  0.43823400  0.20302200  0.06512400  1
  O  O12  1  0.59125500  0.83011400  0.91397700  1
  O  O13  1  0.58552800  0.16214900  0.42338800  1
  O  O14  1  0.70307200  0.43858300  0.85200200  1
  O  O15  1  0.70994600  0.17213600  0.83697600  1
  O  O16  1  0.68547900  0.54823900  0.36431400  1
  O  O17  1  0.72111400  0.81169100  0.33280200  1
  O  O18  1  0.78225600  0.67617200  0.66461100  1
  O  O19  1  0.81811800  0.93231000  0.60637900  1
  O  O20  1  0.78677500  0.31505100  0.17631100  1
  O  O21  1  0.80796600  0.05842000  0.10960400  1
  O  O22  1  0.91089600  0.32592500  0.59778300  1
  O  O23  1  0.90218900  0.66463600  0.08918800  1
loop_
_geom_bond_atom_site_label_1
_geom_bond_atom_site_label_2
_geom_bond_distance
_geom_bond_site_symmetry_2
Li0 O5 2.000271 1_555
Li0 O16 2.005204 1_555
Li0 O6 2.033870 1_555
Li0 O1 2.138943 1_555
Li1 O6 1.948153 1_555
Li1 O14 1.972473 1_555
Li1 O18 1.975385 1_555
Li1 O22 2.125058 1_555
Li2 O8 1.951291 1_555
Li2 O20 1.991058 1_555
Li2 O16 2.073664 1_555
Li2 O23 2.105996 1_555
Li3 O3 1.942014 1_645
Li3 O15 1.961189 1_555
Li3 O21 2.078481 1_556
Li3 O12 2.132302 1_545
Li4 O4 1.904275 1_665
Li4 O17 1.947829 1_555
Li4 O19 2.057123 1_555
Li4 O13 2.081439 1_565
Mn0 O10 1.924930 1_555
Mn0 O18 1.971365 1_455
Mn0 O2 1.981344 1_555
Mn0 O1 2.079587 1_555
Mn0 O6 2.159942 1_555
Mn1 O11 1.989049 1_555
Mn1 O20 2.007557 1_455
Mn1 O8 2.018259 1_555
Mn1 O0 2.187720 1_554
Mn1 O5 2.206560 1_555
Mn2 O0 1.932398 1_555
Mn2 O7 1.963622 1_555
Mn2 O15 1.970264 1_555
Mn2 O11 2.031110 1_556
Mn2 O3 2.060938 1_545
Mn3 O4 2.023230 1_565
Mn3 O9 2.125453 1_555
Mn3 O1 2.138617 1_555
Mn3 O17 2.156232 1_555
Mn3 O10 2.225412 1_555
Mn4 O19 2.069275 1_545
Mn4 O22 2.159977 1_555
Mn4 O13 2.173213 1_555
Mn4 O15 2.183053 1_555
Mn4 O7 2.199184 1_555
Mn5 O21 2.069743 1_565
Mn5 O9 2.112809 1_555
Mn5 O23 2.156281 1_555
Mn5 O12 2.206494 1_554
Mn5 O17 2.208066 1_555
Mn6 O14 2.071700 1_555
Mn6 O12 2.125489 1_555
Mn6 O23 2.155123 1_556
Mn6 O2 2.210212 1_655
Mn6 O18 2.295909 1_555
Mn7 O16 2.104238 1_555
Mn7 O13 2.110906 1_555
Mn7 O5 2.167373 1_655
Mn7 O22 2.178500 1_555
Mn7 O20 2.238182 1_555
B0 O6 1.371404 1_555
B0 O22 1.396783 1_455
B0 O7 1.410269 1_555
B1 O8 1.370992 1_555
B1 O9 1.388027 1_555
B1 O23 1.405513 1_455
B2 O3 1.356189 1_555
B2 O12 1.403909 1_555
B2 O2 1.425817 1_555
B3 O4 1.355081 1_555
B3 O13 1.405247 1_555
B3 O5 1.407269 1_555
B4 O19 1.354960 1_555
B4 O10 1.384071 1_555
B4 O18 1.412491 1_555
B5 O21 1.350208 1_555
B5 O11 1.399938 1_555
B5 O20 1.403103 1_555
B6 O14 1.345928 1_555
B6 O0 1.385097 1_655
B6 O15 1.420957 1_555
B7 O16 1.371447 1_555
B7 O17 1.392618 1_555
B7 O1 1.413269 1_655
