# generated using pymatgen
data_Na3FeSiBO7
_symmetry_space_group_name_H-M   'P 1'
_cell_length_a   6.69508400
_cell_length_b   5.27729700
_cell_length_c   8.96209518
_cell_angle_alpha   88.06921183
_cell_angle_beta   90.00000000
_cell_angle_gamma   90.00000000
_symmetry_Int_Tables_number   1
_chemical_formula_structural   Na3FeSiBO7
_chemical_formula_sum   'Na6 Fe2 Si2 B2 O14'
_cell_volume   316.46849399
_cell_formula_units_Z   2
loop_
 _symmetry_equiv_pos_site_id
 _symmetry_equiv_pos_as_xyz
  1  'x, y, z'
loop_
 _atom_site_type_symbol
 _atom_site_label
 _atom_site_symmetry_multiplicity
 _atom_site_fract_x
 _atom_site_fract_y
 _atom_site_fract_z
 _atom_site_occupancy
  Na  Na0  1  0.75000000  0.23255400  0.91099900  1
  Na  Na1  1  0.99099500  0.74108100  0.73329500  1
  Na  Na2  1  0.50900500  0.74108100  0.73329500  1
  Na  Na3  1  0.49099500  0.25891900  0.26670500  1
  Na  Na4  1  0.00900500  0.25891900  0.26670500  1
  Na  Na5  1  0.25000000  0.76744600  0.08900100  1
  Fe  Fe0  1  0.25000000  0.21200500  0.65742500  1
  Fe  Fe1  1  0.75000000  0.78799500  0.34257500  1
  Si  Si0  1  0.75000000  0.27918300  0.57708800  1
  Si  Si1  1  0.25000000  0.72081700  0.42291200  1
  B  B0  1  0.25000000  0.26983100  0.93483100  1
  B  B1  1  0.75000000  0.73016900  0.06516900  1
  O  O0  1  0.75000000  0.68843200  0.91779000  1
  O  O1  1  0.25000000  0.03331800  0.87336900  1
  O  O2  1  0.25000000  0.46474700  0.82567300  1
  O  O3  1  0.94511800  0.21468700  0.68287500  1
  O  O4  1  0.55488200  0.21468700  0.68287500  1
  O  O5  1  0.75000000  0.58625800  0.52861800  1
  O  O6  1  0.25000000  0.87872800  0.57755100  1
  O  O7  1  0.75000000  0.12127200  0.42244900  1
  O  O8  1  0.25000000  0.41374200  0.47138200  1
  O  O9  1  0.44511800  0.78531300  0.31712500  1
  O  O10  1  0.05488200  0.78531300  0.31712500  1
  O  O11  1  0.75000000  0.53525300  0.17432700  1
  O  O12  1  0.75000000  0.96668200  0.12663100  1
  O  O13  1  0.25000000  0.31156800  0.08221000  1
loop_
_geom_bond_atom_site_label_1
_geom_bond_atom_site_label_2
_geom_bond_distance
_geom_bond_site_symmetry_2
Na0 O12 2.349585 1_546
Na0 O0 2.408622 1_555
Na0 O3 2.430686 1_555
Na0 O4 2.430686 1_555
Na0 O0 2.870087 1_545
Na0 O11 2.894008 1_556
Na1 O0 2.320237 1_555
Na1 O6 2.326917 1_655
Na1 O2 2.395341 1_655
Na1 O3 2.543467 1_565
Na1 O5 2.595509 1_555
Na1 O1 2.663042 1_665
Na1 O3 2.846058 1_555
Na2 O0 2.320237 1_555
Na2 O6 2.326917 1_555
Na2 O2 2.395341 1_555
Na2 O4 2.543467 1_565
Na2 O5 2.595509 1_555
Na2 O1 2.663042 1_565
Na2 O4 2.846058 1_555
Na3 O13 2.320237 1_555
Na3 O7 2.326917 1_555
Na3 O11 2.395341 1_555
Na3 O9 2.543467 1_545
Na3 O8 2.595509 1_555
Na3 O12 2.663042 1_545
Na3 O9 2.846058 1_555
Na4 O13 2.320237 1_555
Na4 O7 2.326917 1_455
Na4 O11 2.395341 1_455
Na4 O10 2.543467 1_545
Na4 O8 2.595509 1_555
Na4 O12 2.663042 1_445
Na4 O10 2.846058 1_555
Na5 O1 2.349585 1_564
Na5 O13 2.408622 1_555
Na5 O9 2.430686 1_555
Na5 O10 2.430686 1_555
Na5 O13 2.870087 1_565
Na5 O2 2.894008 1_554
Fe0 O6 1.921105 1_545
Fe0 O8 1.947773 1_555
Fe0 O2 2.046498 1_555
Fe0 O4 2.054016 1_555
Fe0 O3 2.054016 1_455
Fe0 O1 2.124070 1_555
Fe1 O7 1.921105 1_565
Fe1 O5 1.947773 1_555
Fe1 O11 2.046498 1_555
Fe1 O10 2.054016 1_655
Fe1 O9 2.054016 1_555
Fe1 O12 2.124070 1_555
B0 O13 1.346364 1_556
B0 O1 1.381165 1_555
B0 O2 1.395461 1_555
B1 O0 1.346364 1_554
B1 O12 1.381165 1_555
B1 O11 1.395461 1_555
O3 Si0 1.643000 1_555
O4 Si0 1.643000 1_555
O5 Si0 1.663540 1_555
O6 Si1 1.641028 1_555
O7 Si0 1.641028 1_555
O8 Si1 1.663540 1_555
O9 Si1 1.643000 1_555
O10 Si1 1.643000 1_555
