# generated using pymatgen
data_LiFeSiO4
_symmetry_space_group_name_H-M   'P 1'
_cell_length_a   5.60703646
_cell_length_b   5.91912086
_cell_length_c   7.94084400
_cell_angle_alpha   89.99988580
_cell_angle_beta   89.99999490
_cell_angle_gamma   89.99998593
_symmetry_Int_Tables_number   1
_chemical_formula_structural   LiFeSiO4
_chemical_formula_sum   'Li4 Fe4 Si4 O16'
_cell_volume   263.54649934
_cell_formula_units_Z   4
loop_
 _symmetry_equiv_pos_site_id
 _symmetry_equiv_pos_as_xyz
  1  'x, y, z'
loop_
 _atom_site_type_symbol
 _atom_site_label
 _atom_site_symmetry_multiplicity
 _atom_site_fract_x
 _atom_site_fract_y
 _atom_site_fract_z
 _atom_site_occupancy
  Li  Li0  1  0.75000100  0.74999500  0.25000000  1
  Li  Li1  1  0.25000100  0.25000100  0.74999900  1
  Li  Li2  1  0.25000100  0.74999500  0.25000000  1
  Li  Li3  1  0.75000000  0.25000200  0.75000000  1
  Fe  Fe0  1  0.49999000  0.00002400  0.00000600  1
  Fe  Fe1  1  0.99997900  0.00000200  0.49999700  1
  Fe  Fe2  1  0.00001800  0.49999300  0.50000000  1
  Fe  Fe3  1  0.50000100  0.50001200  0.99999800  1
  Si  Si0  1  0.99999900  0.25000200  0.13339200  1
  Si  Si1  1  0.50000100  0.74999700  0.63339200  1
  Si  Si2  1  0.99999900  0.74999700  0.86660800  1
  Si  Si3  1  0.50000000  0.25000200  0.36660800  1
  O  O0  1  0.00000100  0.48220900  0.24897400  1
  O  O1  1  0.50000000  0.98220800  0.74897300  1
  O  O2  1  0.00000100  0.01778800  0.24897200  1
  O  O3  1  0.50000100  0.51778700  0.74897400  1
  O  O4  1  0.00000100  0.98220900  0.75102800  1
  O  O5  1  0.50000200  0.48220900  0.25102700  1
  O  O6  1  0.00000200  0.51778700  0.75102500  1
  O  O7  1  0.50000100  0.01778800  0.25103000  1
  O  O8  1  0.74292000  0.74999100  0.50623800  1
  O  O9  1  0.24291900  0.25000700  0.00623800  1
  O  O10  1  0.25708000  0.74999100  0.50623700  1
  O  O11  1  0.75708000  0.25000700  0.00623800  1
  O  O12  1  0.74292000  0.25000600  0.49376200  1
  O  O13  1  0.24292200  0.74999200  0.99376100  1
  O  O14  1  0.25708100  0.25000500  0.49376200  1
  O  O15  1  0.75708000  0.74999300  0.99376100  1
loop_
_geom_bond_atom_site_label_1
_geom_bond_atom_site_label_2
_geom_bond_distance
_geom_bond_site_symmetry_2
Li0 O8 2.035133 1_555
Li0 O15 2.035141 1_554
Li0 O5 2.115984 1_555
Li0 O0 2.115987 1_655
Li0 O7 2.116018 1_565
Li0 O2 2.116019 1_665
Li1 O14 2.035125 1_555
Li1 O9 2.035141 1_556
Li1 O6 2.115983 1_555
Li1 O3 2.115988 1_555
Li1 O4 2.116014 1_545
Li1 O1 2.116015 1_545
Li2 O10 2.035125 1_555
Li2 O13 2.035141 1_554
Li2 O0 2.115988 1_555
Li2 O5 2.115991 1_555
Li2 O2 2.116018 1_565
Li2 O7 2.116019 1_565
Li3 O12 2.035133 1_555
Li3 O11 2.035133 1_556
Li3 O3 2.115979 1_555
Li3 O6 2.115991 1_655
Li3 O4 2.116022 1_645
Li3 O1 2.116023 1_545
Fe0 O7 1.996114 1_555
Fe0 O1 1.996202 1_544
Fe0 O9 2.066290 1_555
Fe0 O11 2.066364 1_555
Fe0 O13 2.066489 1_544
Fe0 O15 2.066570 1_544
Fe1 O2 1.996128 1_655
Fe1 O4 1.996178 1_645
Fe1 O12 2.066332 1_555
Fe1 O8 2.066363 1_545
Fe1 O14 2.066497 1_655
Fe1 O10 2.066527 1_645
Fe2 O6 1.996131 1_555
Fe2 O0 1.996136 1_555
Fe2 O14 2.066281 1_555
Fe2 O10 2.066319 1_555
Fe2 O12 2.066414 1_455
Fe2 O8 2.066460 1_455
Fe3 O3 1.996117 1_555
Fe3 O5 1.996165 1_556
Fe3 O13 2.066309 1_555
Fe3 O15 2.066314 1_555
Fe3 O11 2.066415 1_556
Fe3 O9 2.066428 1_556
O0 Si0 1.652737 1_455
O1 Si1 1.652752 1_555
O2 Si0 1.652760 1_455
O3 Si1 1.652749 1_555
O4 Si2 1.652750 1_455
O5 Si3 1.652730 1_555
O6 Si2 1.652756 1_455
O7 Si3 1.652754 1_555
O8 Si1 1.695497 1_555
O9 Si0 1.695501 1_455
O10 Si1 1.695511 1_555
O11 Si0 1.695497 1_555
O12 Si3 1.695502 1_555
O13 Si2 1.695510 1_455
O14 Si3 1.695497 1_555
O15 Si2 1.695492 1_555
