# generated using pymatgen
data_K2HS2NO6
_symmetry_space_group_name_H-M   'P 1'
_cell_length_a   7.45278966
_cell_length_b   7.45278966
_cell_length_c   7.27815879
_cell_angle_alpha   89.97715765
_cell_angle_beta   89.97715765
_cell_angle_gamma   62.49719477
_symmetry_Int_Tables_number   1
_chemical_formula_structural   K2HS2NO6
_chemical_formula_sum   'K4 H2 S4 N2 O12'
_cell_volume   358.57256909
_cell_formula_units_Z   2
loop_
 _symmetry_equiv_pos_site_id
 _symmetry_equiv_pos_as_xyz
  1  'x, y, z'
loop_
 _atom_site_type_symbol
 _atom_site_label
 _atom_site_symmetry_multiplicity
 _atom_site_fract_x
 _atom_site_fract_y
 _atom_site_fract_z
 _atom_site_occupancy
  K  K0  1  0.29100000  0.01781100  0.14164900  1
  K  K1  1  0.98218900  0.70900000  0.35835100  1
  K  K2  1  0.70900000  0.98218900  0.85835100  1
  K  K3  1  0.01781100  0.29100000  0.64164900  1
  H  H0  1  0.45281400  0.54718600  0.25000000  1
  H  H1  1  0.54718600  0.45281400  0.75000000  1
  S  S0  1  0.77767800  0.42181900  0.13773000  1
  S  S1  1  0.57818100  0.22232200  0.36227000  1
  S  S2  1  0.22232200  0.57818100  0.86227000  1
  S  S3  1  0.42181900  0.77767800  0.63773000  1
  N  N0  1  0.58443300  0.41556700  0.25000000  1
  N  N1  1  0.41556700  0.58443300  0.75000000  1
  O  O0  1  0.82666600  0.28768000  0.97690500  1
  O  O1  1  0.71232000  0.17333400  0.52309500  1
  O  O2  1  0.17333400  0.71232000  0.02309500  1
  O  O3  1  0.28768000  0.82666600  0.47690500  1
  O  O4  1  0.69682500  0.63615700  0.09228900  1
  O  O5  1  0.36384300  0.30317500  0.40771100  1
  O  O6  1  0.30317500  0.36384300  0.90771100  1
  O  O7  1  0.63615700  0.69682500  0.59228900  1
  O  O8  1  0.94762300  0.34769800  0.26792600  1
  O  O9  1  0.65230200  0.05237700  0.23207400  1
  O  O10  1  0.05237700  0.65230200  0.73207400  1
  O  O11  1  0.34769800  0.94762300  0.76792600  1
loop_
_geom_bond_atom_site_label_1
_geom_bond_atom_site_label_2
_geom_bond_distance
_geom_bond_site_symmetry_2
K0 O8 2.761756 1_455
K0 O11 2.765274 1_544
K0 O3 2.830822 1_545
K0 O9 2.896962 1_555
K0 O2 2.922903 1_545
K0 O4 3.069493 1_545
K0 O5 3.104529 1_555
K0 O6 3.125772 1_554
K0 O0 3.321388 1_454
K1 O9 2.761756 1_565
K1 O10 2.765274 1_655
K1 O2 2.830822 1_655
K1 O8 2.896962 1_555
K1 O3 2.922903 1_655
K1 O5 3.069493 1_655
K1 O4 3.104529 1_555
K1 O7 3.125772 1_555
K1 O1 3.321388 1_565
K2 O10 2.761756 1_655
K2 O9 2.765274 1_566
K2 O1 2.830822 1_565
K2 O11 2.896962 1_555
K2 O0 2.922903 1_565
K2 O6 3.069493 1_565
K2 O7 3.104529 1_555
K2 O4 3.125772 1_556
K2 O2 3.321388 1_656
K3 O11 2.761756 1_545
K3 O8 2.765274 1_455
K3 O0 2.830822 1_455
K3 O10 2.896962 1_555
K3 O1 2.922903 1_455
K3 O7 3.069493 1_455
K3 O6 3.104529 1_555
K3 O5 3.125772 1_555
K3 O3 3.321388 1_545
H0 N0 1.017718 1_555
H1 N1 1.017718 1_555
N0 S1 1.674838 1_555
N0 S0 1.674838 1_555
N1 S2 1.674838 1_555
N1 S3 1.674838 1_555
O0 S0 1.471836 1_556
O1 S1 1.471836 1_555
O2 S2 1.471836 1_554
O3 S3 1.471836 1_555
O4 S0 1.461144 1_555
O5 S1 1.461144 1_555
O6 S2 1.461144 1_555
O7 S3 1.461144 1_555
O8 S0 1.470240 1_555
O9 S1 1.470240 1_555
O10 S2 1.470240 1_555
O11 S3 1.470240 1_555
