# generated using pymatgen
data_VOF
_symmetry_space_group_name_H-M   'P 1'
_cell_length_a   3.10957100
_cell_length_b   4.74676800
_cell_length_c   14.23552523
_cell_angle_alpha   86.70320973
_cell_angle_beta   90.00000000
_cell_angle_gamma   90.00000000
_symmetry_Int_Tables_number   1
_chemical_formula_structural   VOF
_chemical_formula_sum   'V6 O6 F6'
_cell_volume   209.77447515
_cell_formula_units_Z   6
loop_
 _symmetry_equiv_pos_site_id
 _symmetry_equiv_pos_as_xyz
  1  'x, y, z'
loop_
 _atom_site_type_symbol
 _atom_site_label
 _atom_site_symmetry_multiplicity
 _atom_site_fract_x
 _atom_site_fract_y
 _atom_site_fract_z
 _atom_site_occupancy
  V  V0  1  0.00000000  0.95314400  0.99942100  1
  V  V1  1  0.00000000  0.99362800  0.33334200  1
  V  V2  1  0.00000000  0.01725500  0.66679400  1
  V  V3  1  0.50000000  0.48054000  0.16675600  1
  V  V4  1  0.50000000  0.50544900  0.49984100  1
  V  V5  1  0.50000000  0.55032000  0.83336700  1
  O  O0  1  0.50000000  0.79776300  0.93378200  1
  O  O1  1  0.00000000  0.68275000  0.10237800  1
  O  O2  1  0.00000000  0.71765900  0.76540000  1
  O  O3  1  0.00000000  0.70051900  0.43364800  1
  O  O4  1  0.00000000  0.28661500  0.23312800  1
  O  O5  1  0.00000000  0.30986900  0.56701800  1
  F  F0  1  0.50000000  0.79330900  0.26894600  1
  F  F1  1  0.50000000  0.81666200  0.60187800  1
  F  F2  1  0.00000000  0.30260500  0.89906800  1
  F  F3  1  0.50000000  0.18557100  0.06174300  1
  F  F4  1  0.50000000  0.19397600  0.39836700  1
  F  F5  1  0.50000000  0.21236800  0.73512500  1
loop_
_geom_bond_atom_site_label_1
_geom_bond_atom_site_label_2
_geom_bond_distance
_geom_bond_site_symmetry_2
O0 V5 1.901590 1_555
O0 V0 1.978315 1_655
O0 V0 1.978315 1_555
O1 V0 1.891857 1_554
O1 V3 2.019251 1_555
O1 V3 2.019251 1_455
O2 V2 1.939898 1_565
O2 V5 1.973842 1_455
O2 V5 1.973842 1_555
O3 V1 1.935509 1_555
O3 V4 2.015516 1_555
O3 V4 2.015516 1_455
O4 V1 1.934205 1_545
O4 V3 2.014298 1_455
O4 V3 2.014298 1_555
O5 V2 1.928669 1_555
O5 V4 2.022778 1_555
O5 V4 2.022778 1_455
F0 V1 2.064491 1_655
F0 V1 2.064491 1_555
F0 V3 2.137476 1_555
F0 O3 2.826627 1_555
F0 O3 2.826627 1_655
F0 O4 2.832517 1_565
F0 O4 2.832517 1_665
F0 O1 2.908334 1_655
F0 O1 2.908334 1_555
F1 V2 2.068616 1_565
F1 V2 2.068616 1_665
F1 V4 2.130490 1_555
F1 O2 2.816227 1_555
F1 O2 2.816227 1_655
F1 O5 2.830359 1_565
F1 O5 2.830359 1_665
F2 V0 2.126012 1_545
F2 V5 2.132662 1_455
F2 V5 2.132662 1_555
F2 F3 2.817938 1_456
F2 F3 2.817938 1_556
F2 F5 2.857008 1_455
F2 F5 2.857008 1_555
F2 O0 2.875402 1_545
F2 O0 2.875402 1_445
F2 O0 2.884361 1_555
F2 O0 2.884361 1_455
F3 V3 2.106165 1_555
F3 V0 2.129380 1_544
F3 V0 2.129380 1_644
F4 V1 2.068786 1_645
F4 V1 2.068786 1_545
F4 V4 2.125620 1_555
F4 O3 2.832100 1_645
F4 O3 2.832100 1_545
F4 O4 2.832826 1_555
F4 O4 2.832826 1_655
F5 V2 2.079649 1_655
F5 V2 2.079649 1_555
F5 V5 2.187991 1_555
F5 O2 2.828616 1_645
F5 O2 2.828616 1_545
F5 O5 2.868982 1_555
F5 O5 2.868982 1_655
F5 O2 2.911150 1_555
F5 O2 2.911150 1_655
