# generated using pymatgen
data_Li2FeSiO4
_symmetry_space_group_name_H-M   'P 1'
_cell_length_a   5.06921700
_cell_length_b   5.06900243
_cell_length_c   23.27632600
_cell_angle_alpha   89.99855144
_cell_angle_beta   90.00096198
_cell_angle_gamma   60.00143828
_symmetry_Int_Tables_number   1
_chemical_formula_structural   Li2FeSiO4
_chemical_formula_sum   'Li12 Fe6 Si6 O24'
_cell_volume   517.98208443
_cell_formula_units_Z   6
loop_
 _symmetry_equiv_pos_site_id
 _symmetry_equiv_pos_as_xyz
  1  'x, y, z'
loop_
 _atom_site_type_symbol
 _atom_site_label
 _atom_site_symmetry_multiplicity
 _atom_site_fract_x
 _atom_site_fract_y
 _atom_site_fract_z
 _atom_site_occupancy
  Li  Li0  1  0.44083100  0.88824500  0.29288200  1
  Li  Li1  1  0.44077000  0.88820600  0.79287100  1
  Li  Li2  1  0.67095400  0.44083800  0.45956700  1
  Li  Li3  1  0.67098100  0.44072600  0.95957900  1
  Li  Li4  1  0.88819800  0.67102100  0.12622600  1
  Li  Li5  1  0.88814500  0.67098400  0.62623500  1
  Li  Li6  1  0.32906200  0.11179500  0.04041900  1
  Li  Li7  1  0.32902600  0.11179100  0.54042700  1
  Li  Li8  1  0.11183700  0.55916200  0.37376800  1
  Li  Li9  1  0.11190200  0.55904600  0.87379300  1
  Li  Li10  1  0.55915800  0.32904200  0.20710700  1
  Li  Li11  1  0.55909400  0.32904100  0.70710200  1
  Fe  Fe0  1  0.54581600  0.45401100  0.58331500  1
  Fe  Fe1  1  0.99955600  0.54602100  0.25002600  1
  Fe  Fe2  1  0.45451700  0.99954300  0.91667600  1
  Fe  Fe3  1  0.54614400  0.45428000  0.08329000  1
  Fe  Fe4  1  0.99980900  0.54626500  0.75004700  1
  Fe  Fe5  1  0.45461000  0.99959400  0.41663600  1
  Si  Si0  1  0.80571700  0.19438100  0.33333800  1
  Si  Si1  1  0.80563100  0.19434000  0.83333500  1
  Si  Si2  1  0.19435200  0.00002800  0.16666800  1
  Si  Si3  1  0.19426600  0.00006700  0.66667600  1
  Si  Si4  1  0.99999600  0.80571500  0.49999900  1
  Si  Si5  1  0.00004700  0.80561800  0.00001500  1
  O  O0  1  0.28865900  0.85235500  0.48092400  1
  O  O1  1  0.28870300  0.85227400  0.98092800  1
  O  O2  1  0.85895500  0.28880900  0.14762400  1
  O  O3  1  0.85889100  0.28874500  0.64760900  1
  O  O4  1  0.14110900  0.14769400  0.35238000  1
  O  O5  1  0.14100700  0.14764600  0.85237200  1
  O  O6  1  0.85230200  0.85903900  0.31427500  1
  O  O7  1  0.85224700  0.85893700  0.81430700  1
  O  O8  1  0.14769800  0.71131700  0.18571600  1
  O  O9  1  0.14759700  0.71133800  0.68573700  1
  O  O10  1  0.71138800  0.14097300  0.01906700  1
  O  O11  1  0.71130000  0.14100700  0.51905400  1
  O  O12  1  0.67735500  0.43769400  0.27916700  1
  O  O13  1  0.67719900  0.43766700  0.77917700  1
  O  O14  1  0.43768400  0.88504200  0.11249300  1
  O  O15  1  0.43758000  0.88501500  0.61250300  1
  O  O16  1  0.88496800  0.67737600  0.44583900  1
  O  O17  1  0.88497700  0.67733500  0.94585600  1
  O  O18  1  0.11502300  0.56231300  0.05415100  1
  O  O19  1  0.11493000  0.56236300  0.55414500  1
  O  O20  1  0.32266800  0.11501600  0.22082500  1
  O  O21  1  0.32259300  0.11503400  0.72083000  1
  O  O22  1  0.56236800  0.32271100  0.38748500  1
  O  O23  1  0.56238000  0.32254400  0.88750500  1
loop_
_geom_bond_atom_site_label_1
_geom_bond_atom_site_label_2
_geom_bond_distance
_geom_bond_site_symmetry_2
Li0 O20 1.950533 1_565
Li0 O4 1.989488 1_565
Li0 O12 2.004319 1_555
Li0 O6 2.076478 1_555
Li1 O21 1.950339 1_565
Li1 O5 1.989614 1_565
Li1 O13 2.004176 1_555
Li1 O7 2.076610 1_555
Li2 O22 1.950940 1_555
Li2 O11 1.989481 1_555
Li2 O16 2.004352 1_555
Li2 O0 2.076487 1_555
Li3 O23 1.950938 1_555
Li3 O10 1.989129 1_556
Li3 O17 2.004570 1_555
Li3 O1 2.076489 1_555
Li4 O18 1.951093 1_655
Li4 O8 1.989527 1_655
Li4 O14 2.004280 1_555
Li4 O2 2.076256 1_555
Li5 O19 1.951307 1_655
Li5 O9 1.989676 1_655
Li5 O15 2.004500 1_555
Li5 O3 2.076285 1_555
Li6 O14 1.950831 1_545
Li6 O1 1.989754 1_544
Li6 O18 2.004229 1_555
Li6 O10 2.076476 1_555
Li7 O15 1.950927 1_545
Li7 O0 1.989659 1_545
Li7 O19 2.004407 1_555
Li7 O11 2.076441 1_555
Li8 O16 1.951117 1_455
Li8 O6 1.989774 1_455
Li8 O22 2.004287 1_555
Li8 O4 2.076225 1_555
Li9 O17 1.951085 1_455
Li9 O7 1.989861 1_455
Li9 O23 2.004050 1_555
Li9 O5 2.076440 1_555
Li10 O12 1.950804 1_555
Li10 O2 1.989552 1_555
Li10 O20 2.004161 1_555
Li10 O8 2.076449 1_555
Li11 O13 1.950838 1_555
Li11 O3 1.989625 1_555
Li11 O21 2.004166 1_555
Li11 O9 2.076453 1_555
Fe0 O11 2.031652 1_555
Fe0 O3 2.032363 1_555
Fe0 O19 2.081812 1_555
Fe0 O15 2.082597 1_555
Fe1 O6 2.031516 1_555
Fe1 O8 2.033686 1_655
Fe1 O12 2.079938 1_555
Fe1 O20 2.083210 1_655
Fe2 O1 2.031722 1_555
Fe2 O5 2.033820 1_565
Fe2 O17 2.080031 1_555
Fe2 O23 2.082279 1_565
Fe3 O10 2.031858 1_555
Fe3 O2 2.032303 1_555
Fe3 O14 2.081290 1_555
Fe3 O18 2.083092 1_555
Fe4 O7 2.030622 1_555
Fe4 O9 2.031980 1_655
Fe4 O13 2.082659 1_555
Fe4 O21 2.083649 1_655
Fe5 O0 2.032667 1_555
Fe5 O4 2.032971 1_565
Fe5 O16 2.079880 1_555
Fe5 O22 2.082318 1_565
O0 Si4 1.655358 1_455
O1 Si5 1.655447 1_556
O2 Si2 1.655663 1_655
O3 Si3 1.655547 1_655
O4 Si0 1.655500 1_455
O5 Si1 1.655378 1_455
O6 Si0 1.655530 1_565
O7 Si1 1.655549 1_565
O8 Si2 1.655397 1_565
O9 Si3 1.655609 1_565
O10 Si5 1.655375 1_645
O11 Si4 1.655277 1_545
O12 Si0 1.652825 1_555
O13 Si1 1.652641 1_555
O14 Si2 1.653035 1_565
O15 Si3 1.652940 1_565
O16 Si4 1.652813 1_555
O17 Si5 1.652750 1_656
O18 Si5 1.652177 1_555
O19 Si4 1.652495 1_455
O20 Si2 1.652581 1_555
O21 Si3 1.652501 1_555
O22 Si0 1.652585 1_555
O23 Si1 1.652707 1_555
