# generated using pymatgen
data_Li3MnV(PO4)3
_symmetry_space_group_name_H-M   'P 1'
_cell_length_a   8.65850153
_cell_length_b   8.65850153
_cell_length_c   6.32692517
_cell_angle_alpha   74.21412448
_cell_angle_beta   74.21412448
_cell_angle_gamma   95.36569138
_symmetry_Int_Tables_number   1
_chemical_formula_structural   Li3MnV(PO4)3
_chemical_formula_sum   'Li6 Mn2 V2 P6 O24'
_cell_volume   431.97642929
_cell_formula_units_Z   2
loop_
 _symmetry_equiv_pos_site_id
 _symmetry_equiv_pos_as_xyz
  1  'x, y, z'
loop_
 _atom_site_type_symbol
 _atom_site_label
 _atom_site_symmetry_multiplicity
 _atom_site_fract_x
 _atom_site_fract_y
 _atom_site_fract_z
 _atom_site_occupancy
  Li  Li0  1  0.99663900  0.00463900  0.75110200  1
  Li  Li1  1  0.71258500  0.28927700  0.25074800  1
  Li  Li2  1  0.50021600  0.49995800  0.49958800  1
  Li  Li3  1  0.49995800  0.50021600  0.99958800  1
  Li  Li4  1  0.28927700  0.71258500  0.75074800  1
  Li  Li5  1  0.00463900  0.99663900  0.25110200  1
  Mn  Mn0  1  0.37530900  0.05622100  0.86926200  1
  Mn  Mn1  1  0.05622100  0.37530900  0.36926200  1
  V  V0  1  0.94170600  0.62372300  0.63958700  1
  V  V1  1  0.62372300  0.94170600  0.13958700  1
  P  P0  1  0.71313000  0.28578800  0.75068300  1
  P  P1  1  0.86091400  0.66541300  0.13663900  1
  P  P2  1  0.66541300  0.86091400  0.63663900  1
  P  P3  1  0.33934100  0.13374700  0.36542300  1
  P  P4  1  0.13374700  0.33934100  0.86542300  1
  P  P5  1  0.28578800  0.71313000  0.25068300  1
  O  O0  1  0.98672100  0.66169400  0.91011000  1
  O  O1  1  0.94619200  0.61397500  0.32680300  1
  O  O2  1  0.74205200  0.17411400  0.96727000  1
  O  O3  1  0.82801000  0.26357300  0.52628100  1
  O  O4  1  0.84883200  0.84143900  0.59903800  1
  O  O5  1  0.73416900  0.46144200  0.76803000  1
  O  O6  1  0.84143900  0.84883200  0.09903800  1
  O  O7  1  0.70212200  0.54532000  0.20460700  1
  O  O8  1  0.61397500  0.94619200  0.82680300  1
  O  O9  1  0.66169400  0.98672100  0.41011000  1
  O  O10  1  0.53781400  0.25794500  0.72889500  1
  O  O11  1  0.54532000  0.70212200  0.70460700  1
  O  O12  1  0.45373900  0.29620500  0.29465700  1
  O  O13  1  0.46144200  0.73416900  0.26803000  1
  O  O14  1  0.34160500  0.01179200  0.59675300  1
  O  O15  1  0.40473700  0.04663400  0.17411800  1
  O  O16  1  0.29620500  0.45373900  0.79465700  1
  O  O17  1  0.14453600  0.15673400  0.89040400  1
  O  O18  1  0.25794500  0.53781400  0.22889500  1
  O  O19  1  0.15673400  0.14453600  0.39040400  1
  O  O20  1  0.17411400  0.74205200  0.46727000  1
  O  O21  1  0.26357300  0.82801000  0.02628100  1
  O  O22  1  0.04663400  0.40473700  0.67411800  1
  O  O23  1  0.01179200  0.34160500  0.09675300  1
loop_
_geom_bond_atom_site_label_1
_geom_bond_atom_site_label_2
_geom_bond_distance
_geom_bond_site_symmetry_2
Li0 O6 2.215262 1_546
Li0 O19 2.248898 1_655
Li0 O17 2.254124 1_655
Li0 O4 2.373107 1_545
Li0 O0 2.848983 1_545
Li0 O14 2.867834 1_655
Li0 O2 2.989900 1_555
Li0 O3 3.031282 1_555
Li1 O7 2.169819 1_555
Li1 O12 2.190727 1_555
Li1 O3 2.205855 1_555
Li1 O2 2.246739 1_554
Li1 O23 2.456248 1_655
Li1 O9 2.485713 1_545
Li1 O10 2.915698 1_555
Li1 O5 2.957195 1_554
Li2 O7 2.095518 1_555
Li2 O16 2.105405 1_555
Li2 O13 2.269359 1_555
Li2 O10 2.309173 1_555
Li2 O11 2.506446 1_555
Li2 O12 2.520144 1_555
Li3 O11 2.095518 1_555
Li3 O12 2.105405 1_556
Li3 O5 2.269359 1_555
Li3 O18 2.309173 1_556
Li3 O7 2.506446 1_556
Li3 O16 2.520144 1_555
Li4 O11 2.169819 1_555
Li4 O16 2.190727 1_555
Li4 O21 2.205855 1_556
Li4 O20 2.246739 1_555
Li4 O14 2.456248 1_565
Li4 O0 2.485713 1_455
Li4 O18 2.915698 1_556
Li4 O13 2.957195 1_555
Li5 O4 2.215262 1_455
Li5 O17 2.248898 1_564
Li5 O19 2.254124 1_565
Li5 O6 2.373107 1_455
Li5 O9 2.848983 1_455
Li5 O23 2.867834 1_565
Li5 O20 2.989900 1_555
Li5 O21 3.031282 1_555
Mn0 O14 1.954342 1_555
Mn0 O10 1.958500 1_555
Mn0 O21 1.969480 1_546
Mn0 O15 1.994074 1_556
Mn0 O17 2.238536 1_555
Mn0 O8 2.335714 1_545
Mn1 O23 1.954342 1_555
Mn1 O18 1.958500 1_555
Mn1 O3 1.969480 1_455
Mn1 O22 1.994074 1_555
Mn1 O19 2.238536 1_555
Mn1 O1 2.335714 1_455
O0 P1 1.556919 1_556
O0 V0 1.958232 1_555
O1 P1 1.563474 1_555
O1 V0 1.993637 1_555
O2 P0 1.544843 1_555
O2 V1 2.025017 1_546
O3 P0 1.567850 1_555
O4 P2 1.572751 1_555
O4 V0 2.097303 1_555
O5 P0 1.551854 1_555
O5 V0 1.993935 1_555
O6 P1 1.572751 1_555
O6 V1 2.097303 1_555
O7 P1 1.524517 1_555
O8 P2 1.563474 1_555
O8 V1 1.993637 1_556
O9 P2 1.556919 1_555
O9 V1 1.958232 1_555
O10 P0 1.563604 1_555
O11 P2 1.524517 1_555
O12 P3 1.521739 1_555
O13 P5 1.551854 1_555
O13 V1 1.993935 1_555
O14 P3 1.560819 1_555
O15 P3 1.599452 1_555
O15 V1 2.161731 1_545
O16 P4 1.521739 1_555
O17 P4 1.559899 1_555
O18 P5 1.563604 1_555
O19 P3 1.559899 1_555
O20 P5 1.544843 1_555
O20 V0 2.025017 1_455
O21 P5 1.567850 1_555
O22 P4 1.599452 1_555
O22 V0 2.161731 1_455
O23 P4 1.560819 1_554
