# generated using pymatgen
data_Na2Zn(HO)4
_symmetry_space_group_name_H-M   'P 1'
_cell_length_a   6.63159800
_cell_length_b   8.09378700
_cell_length_c   11.47200127
_cell_angle_alpha   49.18866422
_cell_angle_beta   90.00000000
_cell_angle_gamma   90.00000000
_symmetry_Int_Tables_number   1
_chemical_formula_structural   Na2Zn(HO)4
_chemical_formula_sum   'Na8 Zn4 H16 O16'
_cell_volume   466.04516846
_cell_formula_units_Z   4
loop_
 _symmetry_equiv_pos_site_id
 _symmetry_equiv_pos_as_xyz
  1  'x, y, z'
loop_
 _atom_site_type_symbol
 _atom_site_label
 _atom_site_symmetry_multiplicity
 _atom_site_fract_x
 _atom_site_fract_y
 _atom_site_fract_z
 _atom_site_occupancy
  Na  Na0  1  0.56225100  0.48624400  0.28791600  1
  Na  Na1  1  0.93774900  0.48624400  0.78791600  1
  Na  Na2  1  0.43774900  0.51375600  0.71208400  1
  Na  Na3  1  0.06225100  0.51375600  0.21208400  1
  Na  Na4  1  0.74905300  0.98382200  0.50794500  1
  Na  Na5  1  0.75094700  0.98382200  0.00794500  1
  Na  Na6  1  0.25094700  0.01617800  0.49205500  1
  Na  Na7  1  0.24905300  0.01617800  0.99205500  1
  Zn  Zn0  1  0.74814900  0.31347100  0.63881100  1
  Zn  Zn1  1  0.75185100  0.31347100  0.13881100  1
  Zn  Zn2  1  0.25185100  0.68652900  0.36118900  1
  Zn  Zn3  1  0.24814900  0.68652900  0.86118900  1
  H  H0  1  0.54539100  0.30846400  0.97497800  1
  H  H1  1  0.95460900  0.30846400  0.47497800  1
  H  H2  1  0.45460900  0.69153600  0.02502200  1
  H  H3  1  0.04539100  0.69153600  0.52502200  1
  H  H4  1  0.81030200  0.70711100  0.96273600  1
  H  H5  1  0.68969800  0.70711100  0.46273600  1
  H  H6  1  0.18969800  0.29288900  0.03726400  1
  H  H7  1  0.31030200  0.29288900  0.53726400  1
  H  H8  1  0.53611600  0.94110400  0.22237800  1
  H  H9  1  0.96388400  0.94110400  0.72237800  1
  H  H10  1  0.46388400  0.05889600  0.77762200  1
  H  H11  1  0.03611600  0.05889600  0.27762200  1
  H  H12  1  0.59303000  0.77382800  0.75850700  1
  H  H13  1  0.90697000  0.77382800  0.25850700  1
  H  H14  1  0.40697000  0.22617200  0.24149300  1
  H  H15  1  0.09303000  0.22617200  0.74149300  1
  O  O0  1  0.69355600  0.30298200  0.97656600  1
  O  O1  1  0.80644400  0.30298200  0.47656600  1
  O  O2  1  0.30644400  0.69701800  0.02343400  1
  O  O3  1  0.19355600  0.69701800  0.52343400  1
  O  O4  1  0.74559600  0.62165700  0.56603000  1
  O  O5  1  0.75440400  0.62165700  0.06603000  1
  O  O6  1  0.25440400  0.37834300  0.43397000  1
  O  O7  1  0.24559600  0.37834300  0.93397000  1
  O  O8  1  0.50064100  0.18067500  0.77122700  1
  O  O9  1  0.99935900  0.18067500  0.27122700  1
  O  O10  1  0.49935900  0.81932500  0.22877300  1
  O  O11  1  0.00064100  0.81932500  0.72877300  1
  O  O12  1  0.53241500  0.17160800  0.29926700  1
  O  O13  1  0.96758500  0.17160800  0.79926700  1
  O  O14  1  0.46758500  0.82839200  0.70073300  1
  O  O15  1  0.03241500  0.82839200  0.20073300  1
loop_
_geom_bond_atom_site_label_1
_geom_bond_atom_site_label_2
_geom_bond_distance
_geom_bond_site_symmetry_2
Na0 O1 2.304391 1_555
Na0 O10 2.347589 1_555
Na0 O5 2.378600 1_555
Na0 O6 2.413541 1_555
Na0 O12 2.471395 1_555
Na1 O0 2.304391 1_555
Na1 O11 2.347589 1_655
Na1 O4 2.378600 1_555
Na1 O7 2.413541 1_655
Na1 O13 2.471395 1_555
Na2 O3 2.304391 1_555
Na2 O8 2.347589 1_555
Na2 O7 2.378600 1_555
Na2 O4 2.413541 1_555
Na2 O14 2.471395 1_555
Na3 O2 2.304391 1_555
Na3 O9 2.347589 1_455
Na3 O6 2.378600 1_555
Na3 O5 2.413541 1_455
Na3 O15 2.471395 1_555
Na4 O12 2.312784 1_565
Na4 O1 2.394141 1_565
Na4 O14 2.514224 1_555
Na4 O4 2.546330 1_555
Na4 O11 2.562275 1_655
Na4 O9 2.648181 1_565
Na5 O13 2.312784 1_564
Na5 O0 2.394141 1_564
Na5 O15 2.514224 1_655
Na5 O5 2.546330 1_555
Na5 O10 2.562275 1_555
Na5 O8 2.648181 1_564
Na6 O14 2.312784 1_545
Na6 O3 2.394141 1_545
Na6 O12 2.514224 1_555
Na6 O6 2.546330 1_555
Na6 O9 2.562275 1_455
Na6 O11 2.648181 1_545
Na7 O15 2.312784 1_546
Na7 O2 2.394141 1_546
Na7 O13 2.514224 1_455
Na7 O7 2.546330 1_555
Na7 O8 2.562275 1_555
Na7 O10 2.648181 1_546
H0 O0 0.983204 1_555
H0 Na2 2.411607 1_555
H1 O1 0.983204 1_555
H1 Na3 2.411607 1_655
H2 O2 0.983204 1_555
H2 Na0 2.411607 1_555
H3 O3 0.983204 1_555
H3 Na1 2.411607 1_455
H4 O5 0.973993 1_556
H4 Zn1 2.443155 1_556
H4 Na5 2.637846 1_556
H5 O4 0.973993 1_555
H5 Zn0 2.443155 1_555
H5 Na4 2.637846 1_555
H6 O7 0.973993 1_554
H6 Zn3 2.443155 1_554
H6 Na7 2.637846 1_554
H7 O6 0.973993 1_555
H7 Zn2 2.443155 1_555
H7 Na6 2.637846 1_555
H8 O10 0.970460 1_555
H9 O11 0.970460 1_655
H10 O8 0.970460 1_555
H11 O9 0.970460 1_455
H12 O14 0.971479 1_555
H12 Na4 2.415723 1_555
H13 O15 0.971479 1_655
H13 Na5 2.415723 1_555
H14 O12 0.971479 1_555
H14 Na6 2.415723 1_555
H15 O13 0.971479 1_455
H15 Na7 2.415723 1_555
O0 Zn1 1.956412 1_556
O1 Zn0 1.956412 1_555
O2 Zn3 1.956412 1_554
O3 Zn2 1.956412 1_555
O4 Zn0 2.048672 1_555
O5 Zn1 2.048672 1_555
O6 Zn2 2.048672 1_555
O7 Zn3 2.048672 1_555
O8 Zn0 2.005674 1_555
O9 Zn1 2.005674 1_555
O10 Zn2 2.005674 1_555
O11 Zn3 2.005674 1_555
O12 Zn1 2.015356 1_555
O13 Zn0 2.015356 1_555
O14 Zn3 2.015356 1_555
O15 Zn2 2.015356 1_555
