# generated using pymatgen
data_Li4Mn3Nb2Cr3O16
_symmetry_space_group_name_H-M   'P 1'
_cell_length_a   6.00871753
_cell_length_b   6.00871753
_cell_length_c   9.76971980
_cell_angle_alpha   87.84309270
_cell_angle_beta   87.84309270
_cell_angle_gamma   59.11401458
_symmetry_Int_Tables_number   1
_chemical_formula_structural   Li4Mn3Nb2Cr3O16
_chemical_formula_sum   'Li4 Mn3 Nb2 Cr3 O16'
_cell_volume   302.42834989
_cell_formula_units_Z   1
loop_
 _symmetry_equiv_pos_site_id
 _symmetry_equiv_pos_as_xyz
  1  'x, y, z'
loop_
 _atom_site_type_symbol
 _atom_site_label
 _atom_site_symmetry_multiplicity
 _atom_site_fract_x
 _atom_site_fract_y
 _atom_site_fract_z
 _atom_site_occupancy
  Li  Li0  1  0.66085600  0.66085600  0.09427800  1
  Li  Li1  1  0.99781300  0.99781300  0.00940500  1
  Li  Li2  1  0.00247100  0.00247100  0.50941100  1
  Li  Li3  1  0.33249200  0.33249200  0.59953800  1
  Mn  Mn0  1  0.83092000  0.83092000  0.78709900  1
  Mn  Mn1  1  0.16972500  0.66160900  0.28503600  1
  Mn  Mn2  1  0.66160900  0.16972500  0.28503600  1
  Nb  Nb0  1  0.66718900  0.66718900  0.51102500  1
  Nb  Nb1  1  0.32052600  0.32052600  0.00672800  1
  Cr  Cr0  1  0.33938700  0.83010800  0.78452800  1
  Cr  Cr1  1  0.83010800  0.33938700  0.78452800  1
  Cr  Cr2  1  0.17043700  0.17043700  0.28486900  1
  O  O0  1  0.34306500  0.84558600  0.41153500  1
  O  O1  1  0.52000900  0.52000900  0.66118500  1
  O  O2  1  0.66927500  0.66927500  0.88665800  1
  O  O3  1  0.99673600  0.99673600  0.69528700  1
  O  O4  1  0.00263500  0.00263500  0.19621400  1
  O  O5  1  0.84558600  0.34306500  0.41153500  1
  O  O6  1  0.51474400  0.96466900  0.65570800  1
  O  O7  1  0.96466900  0.51474400  0.65570800  1
  O  O8  1  0.16436700  0.16436700  0.89931600  1
  O  O9  1  0.84048700  0.84048700  0.40635000  1
  O  O10  1  0.03127500  0.46948200  0.15031900  1
  O  O11  1  0.46948200  0.03127500  0.15031900  1
  O  O12  1  0.33310600  0.33310600  0.38543200  1
  O  O13  1  0.17413200  0.66490500  0.91183700  1
  O  O14  1  0.47766400  0.47766400  0.16134600  1
  O  O15  1  0.66490500  0.17413200  0.91183700  1
loop_
_geom_bond_atom_site_label_1
_geom_bond_atom_site_label_2
_geom_bond_distance
_geom_bond_site_symmetry_2
Li0 O14 1.996999 1_555
Li0 O10 1.998169 1_655
Li0 O11 1.998169 1_565
Li0 O2 2.026490 1_554
Li1 O4 1.827946 1_665
Li1 O13 1.980955 1_654
Li1 O15 1.980955 1_564
Li1 O8 2.006515 1_664
Li2 O3 1.814351 1_445
Li2 O0 1.982722 1_545
Li2 O5 1.982722 1_455
Li2 O9 2.007144 1_445
Li3 O6 1.963213 1_545
Li3 O7 1.963213 1_455
Li3 O1 2.075416 1_555
Li3 O12 2.091488 1_555
Mn0 O2 1.912891 1_555
Mn0 O3 1.916921 1_555
Mn0 O7 2.107445 1_555
Mn0 O6 2.107445 1_555
Mn0 O15 2.172272 1_565
Mn0 O13 2.172272 1_655
Mn1 O12 1.938895 1_555
Mn1 O4 1.944098 1_565
Mn1 O14 1.984483 1_555
Mn1 O9 2.051829 1_455
Mn1 O10 2.222569 1_555
Mn1 O0 2.283870 1_555
Mn2 O12 1.938895 1_555
Mn2 O4 1.944098 1_655
Mn2 O14 1.984483 1_555
Mn2 O9 2.051829 1_545
Mn2 O11 2.222569 1_555
Mn2 O5 2.283870 1_555
Nb0 O0 1.951299 1_555
Nb0 O5 1.951299 1_555
Nb0 O9 2.041399 1_555
Nb0 O1 2.079419 1_555
Nb0 O6 2.108050 1_555
Nb0 O7 2.108050 1_555
Nb1 O8 1.978440 1_554
Nb1 O15 1.990815 1_554
Nb1 O13 1.990815 1_554
Nb1 O11 2.025762 1_555
Nb1 O10 2.025762 1_555
Nb1 O14 2.279222 1_555
Cr0 O3 1.988634 1_455
Cr0 O2 1.992045 1_555
Cr0 O6 2.011493 1_555
Cr0 O1 2.023921 1_555
Cr0 O8 2.076006 1_565
Cr0 O13 2.084321 1_555
Cr1 O3 1.988634 1_545
Cr1 O2 1.992045 1_555
Cr1 O7 2.011493 1_555
Cr1 O1 2.023921 1_555
Cr1 O8 2.076006 1_655
Cr1 O15 2.084321 1_555
Cr2 O4 1.989628 1_555
Cr2 O12 2.000353 1_555
Cr2 O10 2.004566 1_555
Cr2 O11 2.004566 1_555
Cr2 O5 2.062403 1_455
Cr2 O0 2.062403 1_545
