# generated using pymatgen
data_LiNiS2
_symmetry_space_group_name_H-M   'P 1'
_cell_length_a   3.42555800
_cell_length_b   5.75880300
_cell_length_c   5.93402875
_cell_angle_alpha   89.92022656
_cell_angle_beta   90.00000000
_cell_angle_gamma   90.00000000
_symmetry_Int_Tables_number   1
_chemical_formula_structural   LiNiS2
_chemical_formula_sum   'Li2 Ni2 S4'
_cell_volume   117.06114634
_cell_formula_units_Z   2
loop_
 _symmetry_equiv_pos_site_id
 _symmetry_equiv_pos_as_xyz
  1  'x, y, z'
loop_
 _atom_site_type_symbol
 _atom_site_label
 _atom_site_symmetry_multiplicity
 _atom_site_fract_x
 _atom_site_fract_y
 _atom_site_fract_z
 _atom_site_occupancy
  Li  Li0  1  0.25785100  0.50000000  0.25000000  1
  Li  Li1  1  0.74214900  0.50000000  0.75000000  1
  Ni  Ni0  1  0.74623700  0.00000000  0.75000000  1
  Ni  Ni1  1  0.25376300  0.00000000  0.25000000  1
  S  S0  1  0.24666600  0.21130700  0.58131300  1
  S  S1  1  0.75333400  0.21130700  0.08131300  1
  S  S2  1  0.75333400  0.78869300  0.41868700  1
  S  S3  1  0.24666600  0.78869300  0.91868700  1
loop_
_geom_bond_atom_site_label_1
_geom_bond_atom_site_label_2
_geom_bond_distance
_geom_bond_site_symmetry_2
Li0 S0 2.573246 1_555
Li0 S3 2.573246 1_554
Li0 S2 2.579043 1_555
Li0 S1 2.579043 1_555
Li0 S1 2.599514 1_455
Li0 S2 2.599514 1_455
Li1 S1 2.573246 1_556
Li1 S2 2.573246 1_555
Li1 S3 2.579043 1_555
Li1 S0 2.579043 1_555
Li1 S3 2.599514 1_655
Li1 S0 2.599514 1_655
Ni0 S2 2.313715 1_545
Ni0 S1 2.313715 1_556
Ni0 S3 2.325502 1_545
Ni0 S0 2.325502 1_555
Ni0 S3 2.327666 1_645
Ni0 S0 2.327666 1_655
Ni1 S0 2.313715 1_555
Ni1 S3 2.313715 1_544
Ni1 S1 2.325502 1_555
Ni1 S2 2.325502 1_545
Ni1 S1 2.327666 1_455
Ni1 S2 2.327666 1_445
