# generated using pymatgen
data_Na4P2H20O17
_symmetry_space_group_name_H-M   'P 1'
_cell_length_a   10.17683404
_cell_length_b   10.17683404
_cell_length_c   18.97204108
_cell_angle_alpha   61.38412585
_cell_angle_beta   61.38412585
_cell_angle_gamma   34.97003619
_symmetry_Int_Tables_number   1
_chemical_formula_structural   Na4P2H20O17
_chemical_formula_sum   'Na8 P4 H40 O34'
_cell_volume   973.90407910
_cell_formula_units_Z   2
loop_
 _symmetry_equiv_pos_site_id
 _symmetry_equiv_pos_as_xyz
  1  'x, y, z'
loop_
 _atom_site_type_symbol
 _atom_site_label
 _atom_site_symmetry_multiplicity
 _atom_site_fract_x
 _atom_site_fract_y
 _atom_site_fract_z
 _atom_site_occupancy
  Na  Na0  1  0.17490900  0.33437600  0.59660700  1
  Na  Na1  1  0.66562400  0.82509100  0.90339300  1
  Na  Na2  1  0.82509100  0.66562400  0.40339300  1
  Na  Na3  1  0.33437600  0.17490900  0.09660700  1
  Na  Na4  1  0.64927600  0.52387000  0.88039200  1
  Na  Na5  1  0.47613000  0.35072400  0.61960800  1
  Na  Na6  1  0.35072400  0.47613000  0.11960800  1
  Na  Na7  1  0.52387000  0.64927600  0.38039200  1
  P  P0  1  0.23420400  0.47475600  0.88188200  1
  P  P1  1  0.52524400  0.76579600  0.61811800  1
  P  P2  1  0.76579600  0.52524400  0.11811800  1
  P  P3  1  0.47475600  0.23420400  0.38188200  1
  H  H0  1  0.26022500  0.55860500  0.50218800  1
  H  H1  1  0.44139500  0.73977500  0.99781200  1
  H  H2  1  0.73977500  0.44139500  0.49781200  1
  H  H3  1  0.55860500  0.26022500  0.00218800  1
  H  H4  1  0.78042200  0.78892400  0.69867200  1
  H  H5  1  0.21107600  0.21957800  0.80132800  1
  H  H6  1  0.21957800  0.21107600  0.30132800  1
  H  H7  1  0.78892400  0.78042200  0.19867200  1
  H  H8  1  0.72953900  0.80119500  0.52276500  1
  H  H9  1  0.19880500  0.27046100  0.97723500  1
  H  H10  1  0.27046100  0.19880500  0.47723500  1
  H  H11  1  0.80119500  0.72953900  0.02276500  1
  H  H12  1  0.59367200  0.77899300  0.71141800  1
  H  H13  1  0.22100700  0.40632800  0.78858200  1
  H  H14  1  0.40632800  0.22100700  0.28858200  1
  H  H15  1  0.77899300  0.59367200  0.21141800  1
  H  H16  1  0.95593700  0.79268100  0.71867700  1
  H  H17  1  0.20731900  0.04406300  0.78132300  1
  H  H18  1  0.04406300  0.20731900  0.28132300  1
  H  H19  1  0.79268100  0.95593700  0.21867700  1
  H  H20  1  0.95645100  0.83764900  0.67328900  1
  H  H21  1  0.16235100  0.04354900  0.82671100  1
  H  H22  1  0.04354900  0.16235100  0.32671100  1
  H  H23  1  0.83764900  0.95645100  0.17328900  1
  H  H24  1  0.65142100  0.44195700  0.65904900  1
  H  H25  1  0.55804300  0.34857900  0.84095100  1
  H  H26  1  0.34857900  0.55804300  0.34095100  1
  H  H27  1  0.44195700  0.65142100  0.15904900  1
  H  H28  1  0.89654600  0.14026900  0.27725700  1
  H  H29  1  0.85973100  0.10345400  0.22274300  1
  H  H30  1  0.10345400  0.85973100  0.72274300  1
  H  H31  1  0.14026900  0.89654600  0.77725700  1
  H  H32  1  0.86812600  0.96582000  0.04611800  1
  H  H33  1  0.03418000  0.13187400  0.45388200  1
  H  H34  1  0.13187400  0.03418000  0.95388200  1
  H  H35  1  0.96582000  0.86812600  0.54611800  1
  H  H36  1  0.96918500  0.29698700  0.92626600  1
  H  H37  1  0.70301300  0.03081500  0.57373400  1
  H  H38  1  0.03081500  0.70301300  0.07373400  1
  H  H39  1  0.29698700  0.96918500  0.42626600  1
  O  O0  1  0.02292500  0.97707500  0.75000000  1
  O  O1  1  0.97707500  0.02292500  0.25000000  1
  O  O2  1  0.41205300  0.45630900  0.87702100  1
  O  O3  1  0.54369100  0.58794700  0.62297900  1
  O  O4  1  0.58794700  0.54369100  0.12297900  1
  O  O5  1  0.45630900  0.41205300  0.37702100  1
  O  O6  1  0.03655700  0.80794500  0.05217300  1
  O  O7  1  0.19205500  0.96344300  0.44782700  1
  O  O8  1  0.96344300  0.19205500  0.94782700  1
  O  O9  1  0.80794500  0.03655700  0.55217300  1
  O  O10  1  0.28644500  0.45405300  0.79393200  1
  O  O11  1  0.54594700  0.71355500  0.70606800  1
  O  O12  1  0.71355500  0.54594700  0.20606800  1
  O  O13  1  0.45405300  0.28644500  0.29393200  1
  O  O14  1  0.81400600  0.42714300  0.44090800  1
  O  O15  1  0.57285700  0.18599400  0.05909200  1
  O  O16  1  0.18599400  0.57285700  0.55909200  1
  O  O17  1  0.42714300  0.81400600  0.94090800  1
  O  O18  1  0.76364400  0.66862700  0.56061500  1
  O  O19  1  0.33137300  0.23635600  0.93938500  1
  O  O20  1  0.23635600  0.33137300  0.43938500  1
  O  O21  1  0.66862700  0.76364400  0.06061500  1
  O  O22  1  0.61987500  0.87255000  0.71926500  1
  O  O23  1  0.12745000  0.38012500  0.78073500  1
  O  O24  1  0.38012500  0.12745000  0.28073500  1
  O  O25  1  0.87255000  0.61987500  0.21926500  1
  O  O26  1  0.00545300  0.32028100  0.08148500  1
  O  O27  1  0.67971900  0.99454700  0.41851500  1
  O  O28  1  0.99454700  0.67971900  0.91851500  1
  O  O29  1  0.32028100  0.00545300  0.58148500  1
  O  O30  1  0.91412200  0.51797400  0.84268500  1
  O  O31  1  0.48202600  0.08587800  0.65731500  1
  O  O32  1  0.08587800  0.48202600  0.15731500  1
  O  O33  1  0.51797400  0.91412200  0.34268500  1
loop_
_geom_bond_atom_site_label_1
_geom_bond_atom_site_label_2
_geom_bond_distance
_geom_bond_site_symmetry_2
Na0 O16 2.264231 1_555
Na0 O31 2.279187 1_555
Na0 O29 2.423464 1_555
Na0 O18 2.595020 1_455
Na0 O20 2.749277 1_555
Na1 O17 2.264231 1_555
Na1 O30 2.279187 1_555
Na1 O28 2.423464 1_555
Na1 O19 2.595020 1_565
Na1 O21 2.749277 1_556
Na2 O14 2.264231 1_555
Na2 O33 2.279187 1_555
Na2 O27 2.423464 1_555
Na2 O20 2.595020 1_655
Na2 O18 2.749277 1_555
Na3 O15 2.264231 1_555
Na3 O32 2.279187 1_555
Na3 O26 2.423464 1_555
Na3 O21 2.595020 1_545
Na3 O19 2.749277 1_554
Na4 O17 2.229000 1_555
Na4 O8 2.312474 1_555
Na4 O30 2.389376 1_555
Na4 O2 3.035703 1_555
Na4 O11 3.107952 1_555
Na5 O16 2.229000 1_555
Na5 O9 2.312474 1_555
Na5 O31 2.389376 1_555
Na5 O3 3.035703 1_555
Na5 O10 3.107952 1_555
Na6 O15 2.229000 1_555
Na6 O6 2.312474 1_555
Na6 O32 2.389376 1_555
Na6 O4 3.035703 1_555
Na6 O13 3.107952 1_555
Na7 O14 2.229000 1_555
Na7 O7 2.312474 1_555
Na7 O33 2.389376 1_555
Na7 O5 3.035703 1_555
Na7 O12 3.107952 1_555
H0 O16 0.972852 1_555
H0 Na5 2.611909 1_555
H0 Na7 3.076740 1_555
H1 O17 0.972852 1_555
H1 Na4 2.611909 1_555
H1 Na6 3.076740 1_556
H2 O14 0.972852 1_555
H2 Na7 2.611909 1_555
H2 Na5 3.076740 1_555
H3 O15 0.972852 1_555
H3 Na6 2.611909 1_555
H3 Na4 3.076740 1_554
H4 O22 0.987210 1_555
H5 O23 0.987210 1_555
H6 O24 0.987210 1_555
H7 O25 0.987210 1_555
H8 O18 0.999793 1_555
H8 O27 1.907463 1_555
H8 Na2 2.581243 1_555
H9 O19 0.999793 1_555
H9 O26 1.907463 1_556
H9 Na3 2.581243 1_556
H10 O20 0.999793 1_555
H10 O29 1.907463 1_555
H10 Na0 2.581243 1_555
H11 O21 0.999793 1_555
H11 O28 1.907463 1_554
H11 Na1 2.581243 1_554
H12 O11 1.154016 1_555
H12 O22 1.260834 1_555
H12 Na4 2.948789 1_555
H13 O10 1.154016 1_555
H13 O23 1.260834 1_555
H13 Na5 2.948789 1_555
H14 O13 1.154016 1_555
H14 O24 1.260834 1_555
H14 Na6 2.948789 1_555
H15 O12 1.154016 1_555
H15 O25 1.260834 1_555
H15 Na7 2.948789 1_555
H16 H20 0.757031 1_555
H17 H21 0.757031 1_555
H18 H22 0.757031 1_555
H19 H23 0.757031 1_555
H24 O3 0.976142 1_555
H24 Na5 3.043499 1_555
H25 O2 0.976142 1_555
H25 Na4 3.043499 1_555
H26 O5 0.976142 1_555
H26 Na7 3.043499 1_555
H27 O4 0.976142 1_555
H27 Na6 3.043499 1_555
H28 O1 0.973017 1_555
H29 O1 0.973017 1_555
H30 O0 0.973017 1_555
H31 O0 0.973017 1_555
H32 O6 1.015386 1_655
H33 O7 1.015386 1_545
H34 O8 1.015386 1_455
H35 O9 1.015386 1_565
H36 O8 0.985929 1_555
H36 O30 1.804451 1_555
H36 Na4 2.270985 1_555
H37 O9 0.985929 1_555
H37 O31 1.804451 1_555
H37 Na5 2.270985 1_555
H38 O6 0.985929 1_555
H38 O32 1.804451 1_555
H38 Na6 2.270985 1_555
H39 O7 0.985929 1_555
H39 O33 1.804451 1_555
H39 Na7 2.270985 1_555
O2 P0 1.618473 1_555
O3 P1 1.618473 1_555
O4 P2 1.618473 1_555
O5 P3 1.618473 1_555
O10 P0 1.553922 1_555
O11 P1 1.553922 1_555
O12 P2 1.553922 1_555
O13 P3 1.553922 1_555
O18 P1 1.618746 1_555
O19 P0 1.618746 1_555
O20 P3 1.618746 1_555
O21 P2 1.618746 1_555
O22 O31 1.485396 1_565
O23 O30 1.485396 1_455
O24 O33 1.485396 1_545
O25 O32 1.485396 1_655
O26 P2 1.486493 1_455
O27 P3 1.486493 1_565
O28 P0 1.486493 1_655
O29 P1 1.486493 1_545
