# generated using pymatgen
data_LiCu3(CO3)3
_symmetry_space_group_name_H-M   'P 1'
_cell_length_a   6.17659900
_cell_length_b   8.05911800
_cell_length_c   8.07282688
_cell_angle_alpha   60.66948253
_cell_angle_beta   90.00000000
_cell_angle_gamma   90.00000000
_symmetry_Int_Tables_number   1
_chemical_formula_structural   LiCu3(CO3)3
_chemical_formula_sum   'Li2 Cu6 C6 O18'
_cell_volume   350.33510209
_cell_formula_units_Z   2
loop_
 _symmetry_equiv_pos_site_id
 _symmetry_equiv_pos_as_xyz
  1  'x, y, z'
loop_
 _atom_site_type_symbol
 _atom_site_label
 _atom_site_symmetry_multiplicity
 _atom_site_fract_x
 _atom_site_fract_y
 _atom_site_fract_z
 _atom_site_occupancy
  Li  Li0  1  0.00000000  0.96879000  0.65142800  1
  Li  Li1  1  0.50000000  0.65533200  0.38224300  1
  Cu  Cu0  1  0.74468500  0.29628800  0.68665400  1
  Cu  Cu1  1  0.25531500  0.29628800  0.68665400  1
  Cu  Cu2  1  0.24853100  0.66002000  0.02336700  1
  Cu  Cu3  1  0.75146900  0.66002000  0.02336700  1
  Cu  Cu4  1  0.74925700  0.04135800  0.28284700  1
  Cu  Cu5  1  0.25074300  0.04135800  0.28284700  1
  C  C0  1  0.75045900  0.67101600  0.66319700  1
  C  C1  1  0.24954100  0.67101600  0.66319700  1
  C  C2  1  0.00000000  0.00968100  0.99321400  1
  C  C3  1  0.50000000  0.99119700  0.00208000  1
  C  C4  1  0.00000000  0.33201500  0.33308800  1
  C  C5  1  0.50000000  0.32977100  0.34604000  1
  O  O0  1  0.00000000  0.89343900  0.92422100  1
  O  O1  1  0.50000000  0.87311300  0.93721300  1
  O  O2  1  0.24618900  0.56904900  0.84439700  1
  O  O3  1  0.75381100  0.56904900  0.84439700  1
  O  O4  1  0.76467400  0.85517000  0.58009600  1
  O  O5  1  0.23532600  0.85517000  0.58009600  1
  O  O6  1  0.00000000  0.19375300  0.87879600  1
  O  O7  1  0.50000000  0.17349900  0.89276300  1
  O  O8  1  0.73271400  0.58618600  0.56218000  1
  O  O9  1  0.26728600  0.58618600  0.56218000  1
  O  O10  1  0.00000000  0.94197200  0.17617500  1
  O  O11  1  0.50000000  0.92612900  0.18882600  1
  O  O12  1  0.00000000  0.26134500  0.51665300  1
  O  O13  1  0.50000000  0.25843200  0.52925300  1
  O  O14  1  0.00000000  0.51341700  0.21850600  1
  O  O15  1  0.50000000  0.51407400  0.23748200  1
  O  O16  1  0.00000000  0.21516800  0.26462100  1
  O  O17  1  0.50000000  0.21975000  0.27107800  1
loop_
_geom_bond_atom_site_label_1
_geom_bond_atom_site_label_2
_geom_bond_distance
_geom_bond_site_symmetry_2
Li0 O5 1.949194 1_555
Li0 O4 1.949194 1_455
Li0 O0 1.976951 1_555
Li0 O12 2.056582 1_565
Li1 O8 1.921878 1_555
Li1 O9 1.921878 1_555
Li1 O11 1.965303 1_555
Li1 O15 1.991245 1_555
Cu0 O8 2.042941 1_555
Cu0 O6 2.078453 1_655
Cu0 O13 2.090829 1_555
Cu0 O7 2.102083 1_555
Cu0 O12 2.197327 1_655
Cu1 O9 2.042941 1_555
Cu1 O6 2.078453 1_555
Cu1 O13 2.090829 1_555
Cu1 O7 2.102083 1_555
Cu1 O12 2.197327 1_555
Cu2 O2 1.913864 1_554
Cu2 O14 2.100140 1_555
Cu2 O1 2.162250 1_554
Cu2 O15 2.189043 1_555
Cu2 O0 2.249607 1_554
Cu3 O3 1.913864 1_554
Cu3 O14 2.100140 1_655
Cu3 O1 2.162250 1_554
Cu3 O15 2.189043 1_555
Cu3 O0 2.249607 1_654
Cu4 O16 2.044613 1_655
Cu4 O17 2.076628 1_555
Cu4 O10 2.111266 1_645
Cu4 O4 2.119269 1_545
Cu4 O11 2.121149 1_545
Cu5 O16 2.044613 1_555
Cu5 O17 2.076628 1_555
Cu5 O10 2.111266 1_545
Cu5 O5 2.119269 1_545
Cu5 O11 2.121149 1_545
C0 O3 1.279779 1_555
C0 O4 1.298057 1_555
C0 O8 1.300239 1_555
C1 O2 1.279779 1_555
C1 O5 1.298057 1_555
C1 O9 1.300239 1_555
C2 O10 1.299894 1_546
C2 O0 1.303457 1_545
C2 O6 1.308211 1_555
C3 O7 1.291162 1_564
C3 O1 1.291544 1_554
C3 O11 1.331633 1_555
C4 O14 1.291534 1_555
C4 O12 1.301351 1_555
C4 O16 1.304680 1_555
C5 O17 1.295407 1_555
C5 O13 1.298092 1_555
C5 O15 1.303435 1_555
