# generated using pymatgen
data_Li3MnSiCO7
_symmetry_space_group_name_H-M   'P 1'
_cell_length_a   5.06404557
_cell_length_b   8.54531610
_cell_length_c   6.31696600
_cell_angle_alpha   90.00033987
_cell_angle_beta   90.00000483
_cell_angle_gamma   86.56267936
_symmetry_Int_Tables_number   1
_chemical_formula_structural   Li3MnSiCO7
_chemical_formula_sum   'Li6 Mn2 Si2 C2 O14'
_cell_volume   272.86778871
_cell_formula_units_Z   2
loop_
 _symmetry_equiv_pos_site_id
 _symmetry_equiv_pos_as_xyz
  1  'x, y, z'
loop_
 _atom_site_type_symbol
 _atom_site_label
 _atom_site_symmetry_multiplicity
 _atom_site_fract_x
 _atom_site_fract_y
 _atom_site_fract_z
 _atom_site_occupancy
  Li  Li0  1  0.75676100  0.11596700  0.24999600  1
  Li  Li1  1  0.24345100  0.88408200  0.75000000  1
  Li  Li2  1  0.24297300  0.28295700  0.03365700  1
  Li  Li3  1  0.24296900  0.28296000  0.46633800  1
  Li  Li4  1  0.75701400  0.71708900  0.53368400  1
  Li  Li5  1  0.75701400  0.71709100  0.96632100  1
  Mn  Mn0  1  0.19451700  0.66932800  0.25004100  1
  Mn  Mn1  1  0.80519400  0.33073500  0.74997300  1
  Si  Si0  1  0.71319600  0.42501000  0.24999500  1
  Si  Si1  1  0.28666600  0.57498500  0.75000300  1
  C  C0  1  0.73017400  0.02802500  0.74999800  1
  C  C1  1  0.27002000  0.97193200  0.25000000  1
  O  O0  1  0.36101000  0.11069100  0.24999900  1
  O  O1  1  0.63931500  0.88924400  0.75000100  1
  O  O2  1  0.97770300  0.05211900  0.74999800  1
  O  O3  1  0.02244500  0.94794200  0.24999700  1
  O  O4  1  0.55951400  0.15108800  0.75000000  1
  O  O5  1  0.44050400  0.84880300  0.25000300  1
  O  O6  1  0.38883300  0.44130100  0.25000200  1
  O  O7  1  0.61104700  0.55867600  0.75000100  1
  O  O8  1  0.17523300  0.39909600  0.74999900  1
  O  O9  1  0.82466000  0.60088300  0.25000300  1
  O  O10  1  0.82778200  0.31174200  0.05330500  1
  O  O11  1  0.82778500  0.31173900  0.44668000  1
  O  O12  1  0.17211100  0.68825800  0.55332900  1
  O  O13  1  0.17211200  0.68825800  0.94667900  1
loop_
_geom_bond_atom_site_label_1
_geom_bond_atom_site_label_2
_geom_bond_distance
_geom_bond_site_symmetry_2
Li0 O3 1.907917 1_645
Li0 O0 2.007309 1_555
Li0 O11 2.131635 1_555
Li0 O10 2.131690 1_555
Li1 O2 1.908204 1_465
Li1 O1 2.007801 1_555
Li1 O12 2.132286 1_555
Li1 O13 2.132326 1_555
Li2 O8 2.067020 1_554
Li2 O0 2.070376 1_555
Li2 O6 2.089022 1_555
Li2 O10 2.105847 1_455
Li2 O4 2.614089 1_554
Li3 O8 2.067012 1_555
Li3 O0 2.070374 1_555
Li3 O6 2.088986 1_555
Li3 O11 2.105813 1_455
Li3 O4 2.614142 1_555
Li4 O9 2.067340 1_555
Li4 O1 2.069181 1_555
Li4 O7 2.089524 1_555
Li4 O12 2.105397 1_655
Li4 O5 2.613588 1_555
Li5 O9 2.067364 1_556
Li5 O1 2.069193 1_555
Li5 O7 2.089537 1_555
Li5 O13 2.105402 1_655
Li5 O5 2.613577 1_556
Mn0 O12 1.925450 1_555
Mn0 O13 1.925916 1_554
Mn0 O9 1.995364 1_455
Mn0 O5 2.032973 1_555
Mn0 O6 2.129619 1_555
Mn0 O3 2.485750 1_555
Mn1 O11 1.925577 1_555
Mn1 O10 1.925821 1_556
Mn1 O8 1.995995 1_655
Mn1 O4 2.033114 1_555
Mn1 O7 2.128618 1_555
Mn1 O2 2.486415 1_555
C0 O2 1.282418 1_555
C0 O1 1.297521 1_545
C0 O4 1.320530 1_555
C1 O3 1.282454 1_555
C1 O0 1.297617 1_565
C1 O5 1.320417 1_555
O6 Si0 1.640140 1_555
O7 Si1 1.640234 1_555
O8 Si1 1.636836 1_555
O9 Si0 1.636771 1_555
O10 Si0 1.658302 1_555
O11 Si0 1.658306 1_555
O12 Si1 1.658210 1_555
O13 Si1 1.658209 1_555
