# generated using pymatgen
data_Li24Ti5Cr7O36
_symmetry_space_group_name_H-M   'P 1'
_cell_length_a   5.07581500
_cell_length_b   9.80184118
_cell_length_c   13.35391068
_cell_angle_alpha   97.13600124
_cell_angle_beta   100.84012501
_cell_angle_gamma   95.07569970
_symmetry_Int_Tables_number   1
_chemical_formula_structural   Li24Ti5Cr7O36
_chemical_formula_sum   'Li24 Ti5 Cr7 O36'
_cell_volume   643.20085874
_cell_formula_units_Z   1
loop_
 _symmetry_equiv_pos_site_id
 _symmetry_equiv_pos_as_xyz
  1  'x, y, z'
loop_
 _atom_site_type_symbol
 _atom_site_label
 _atom_site_symmetry_multiplicity
 _atom_site_fract_x
 _atom_site_fract_y
 _atom_site_fract_z
 _atom_site_occupancy
  Li  Li0  1  0.16735100  0.99995700  0.83342500  1
  Li  Li1  1  0.05320900  0.00037700  0.61536800  1
  Li  Li2  1  0.99821300  0.75086400  0.24969700  1
  Li  Li3  1  0.33383300  0.75020400  0.91705000  1
  Li  Li4  1  0.04551600  0.49653300  0.11055300  1
  Li  Li5  1  0.37975200  0.50054700  0.77805200  1
  Li  Li6  1  0.17090900  0.49940200  0.33361700  1
  Li  Li7  1  0.50060200  0.50023200  0.00019700  1
  Li  Li8  1  0.28470500  0.50100300  0.55469400  1
  Li  Li9  1  0.33390300  0.25004100  0.41774000  1
  Li  Li10  1  0.50651100  0.00011900  0.49838000  1
  Li  Li11  1  0.28110300  0.00071400  0.05167900  1
  Li  Li12  1  0.61269000  0.99802300  0.71837800  1
  Li  Li13  1  0.38293600  0.99909200  0.28018100  1
  Li  Li14  1  0.71974700  0.00132500  0.94826500  1
  Li  Li15  1  0.66586700  0.74965800  0.58286600  1
  Li  Li16  1  0.70994400  0.49984400  0.44501600  1
  Li  Li17  1  0.83320700  0.49993600  0.66666500  1
  Li  Li18  1  0.62305000  0.50189500  0.22227400  1
  Li  Li19  1  0.95288300  0.49973000  0.88873700  1
  Li  Li20  1  0.66571500  0.25019200  0.08234300  1
  Li  Li21  1  0.82970100  0.99985400  0.16768000  1
  Li  Li22  1  0.99917400  0.24978900  0.74924400  1
  Li  Li23  1  0.94740000  0.99954700  0.38628400  1
  Ti  Ti0  1  0.10775200  0.74673300  0.47244400  1
  Ti  Ti1  1  0.22397400  0.25037900  0.19326700  1
  Ti  Ti2  1  0.55636200  0.24975600  0.86056100  1
  Ti  Ti3  1  0.77786000  0.75031900  0.80682100  1
  Ti  Ti4  1  0.77820000  0.24981600  0.30773000  1
  Cr  Cr0  1  0.10819200  0.24988600  0.97017100  1
  Cr  Cr1  1  0.22563000  0.75030900  0.69478800  1
  Cr  Cr2  1  0.44243700  0.24959200  0.63535300  1
  Cr  Cr3  1  0.44430800  0.75143600  0.13501300  1
  Cr  Cr4  1  0.55090900  0.75011600  0.35875800  1
  Cr  Cr5  1  0.89247100  0.25045900  0.53176300  1
  Cr  Cr6  1  0.89223500  0.75021100  0.03137500  1
  O  O0  1  0.00022300  0.86198100  0.93103400  1
  O  O1  1  0.07253800  0.63514700  0.78481600  1
  O  O2  1  0.00156800  0.36219700  0.43151500  1
  O  O3  1  0.13574400  0.36141700  0.64166400  1
  O  O4  1  0.25904100  0.36459800  0.88269600  1
  O  O5  1  0.33376700  0.86294900  0.59764000  1
  O  O6  1  0.06920900  0.13375600  0.28471700  1
  O  O7  1  0.19848000  0.13806500  0.52578400  1
  O  O8  1  0.40428000  0.13446900  0.95129800  1
  O  O9  1  0.13515600  0.86189900  0.14077300  1
  O  O10  1  0.27158000  0.86472800  0.38120100  1
  O  O11  1  0.47507900  0.86268100  0.81053400  1
  O  O12  1  0.33345100  0.13785000  0.73577500  1
  O  O13  1  0.19741500  0.63762100  0.02679500  1
  O  O14  1  0.39962700  0.63370800  0.45179700  1
  O  O15  1  0.51789600  0.63737900  0.68996000  1
  O  O16  1  0.33820500  0.64108600  0.23850200  1
  O  O17  1  0.66775800  0.63688500  0.90618700  1
  O  O18  1  0.33559800  0.36236400  0.09371900  1
  O  O19  1  0.66503900  0.36275600  0.76034500  1
  O  O20  1  0.47645500  0.36400100  0.31024700  1
  O  O21  1  0.59155000  0.36368000  0.55046300  1
  O  O22  1  0.81014200  0.36343600  0.97654500  1
  O  O23  1  0.66571500  0.86192800  0.25930200  1
  O  O24  1  0.52248500  0.13637900  0.19040500  1
  O  O25  1  0.74270300  0.13574900  0.61664600  1
  O  O26  1  0.86124700  0.13762200  0.85719600  1
  O  O27  1  0.59309000  0.86467200  0.05047500  1
  O  O28  1  0.80853100  0.86252300  0.47508600  1
  O  O29  1  0.93210300  0.86501500  0.71483400  1
  O  O30  1  0.66727800  0.13797000  0.40694200  1
  O  O31  1  0.74225000  0.63619000  0.11628400  1
  O  O32  1  0.85144400  0.63787700  0.35576500  1
  O  O33  1  0.99662100  0.63697800  0.57229700  1
  O  O34  1  0.93178300  0.36652300  0.21595500  1
  O  O35  1  0.99669600  0.13803600  0.06838500  1
loop_
_geom_bond_atom_site_label_1
_geom_bond_atom_site_label_2
_geom_bond_distance
_geom_bond_site_symmetry_2
Li0 O8 2.038159 1_565
Li0 O29 2.042571 1_455
Li0 O26 2.187624 1_465
Li0 O11 2.189294 1_555
Li0 O12 2.210853 1_565
Li0 O0 2.213270 1_555
Li1 O5 2.070153 1_545
Li1 O7 2.086405 1_555
Li1 O29 2.122071 1_445
Li1 O25 2.149295 1_455
Li1 O12 2.164882 1_555
Li1 O28 2.253129 1_445
Li2 O23 2.102789 1_555
Li2 O9 2.103132 1_655
Li2 O32 2.104376 1_555
Li2 O31 2.121054 1_555
Li2 O16 2.131665 1_655
Li2 O10 2.139467 1_655
Li3 O11 2.094286 1_555
Li3 O13 2.119735 1_556
Li3 O0 2.121097 1_555
Li3 O1 2.123377 1_555
Li3 O17 2.124423 1_555
Li3 O27 2.127285 1_556
Li4 O13 2.068326 1_555
Li4 O18 2.083669 1_555
Li4 O34 2.135283 1_455
Li4 O31 2.154154 1_455
Li4 O22 2.161420 1_454
Li4 O16 2.281520 1_555
Li5 O15 2.051879 1_555
Li5 O19 2.091039 1_555
Li5 O1 2.137239 1_555
Li5 O4 2.178089 1_555
Li5 O3 2.224069 1_555
Li5 O17 2.235201 1_555
Li6 O14 2.023774 1_555
Li6 O34 2.032958 1_455
Li6 O20 2.169661 1_555
Li6 O16 2.213215 1_555
Li6 O2 2.216190 1_555
Li6 O32 2.242604 1_455
Li7 O31 2.041041 1_555
Li7 O4 2.050010 1_554
Li7 O18 2.167906 1_555
Li7 O17 2.169647 1_554
Li7 O13 2.182064 1_555
Li7 O22 2.195545 1_554
Li8 O3 2.081951 1_555
Li8 O33 2.089529 1_455
Li8 O14 2.128757 1_555
Li8 O21 2.150786 1_555
Li8 O15 2.183259 1_555
Li8 O2 2.197970 1_555
Li9 O7 2.095672 1_555
Li9 O21 2.114756 1_555
Li9 O30 2.114758 1_555
Li9 O20 2.116089 1_555
Li9 O2 2.117195 1_555
Li9 O6 2.141975 1_555
Li10 O10 2.033200 1_545
Li10 O25 2.045251 1_555
Li10 O30 2.138269 1_555
Li10 O28 2.169514 1_545
Li10 O7 2.207502 1_555
Li10 O5 2.237153 1_545
Li11 O35 2.082266 1_455
Li11 O9 2.090696 1_545
Li11 O8 2.124491 1_554
Li11 O27 2.159636 1_545
Li11 O0 2.173947 1_544
Li11 O24 2.224239 1_555
Li12 O11 2.080196 1_555
Li12 O12 2.080820 1_565
Li12 O5 2.153195 1_555
Li12 O29 2.172101 1_555
Li12 O25 2.176859 1_565
Li12 O26 2.255016 1_565
Li13 O24 2.073976 1_565
Li13 O23 2.084309 1_555
Li13 O10 2.114317 1_555
Li13 O6 2.161040 1_565
Li13 O30 2.227643 1_565
Li13 O9 2.248090 1_555
Li14 O0 2.081919 1_645
Li14 O26 2.083753 1_555
Li14 O35 2.151580 1_556
Li14 O8 2.156350 1_555
Li14 O27 2.168479 1_546
Li14 O11 2.234533 1_545
Li15 O33 2.106370 1_555
Li15 O28 2.113209 1_555
Li15 O15 2.114085 1_555
Li15 O5 2.124955 1_555
Li15 O14 2.127380 1_555
Li15 O29 2.132872 1_555
Li16 O32 2.077879 1_555
Li16 O2 2.106474 1_655
Li16 O14 2.144911 1_555
Li16 O20 2.177048 1_555
Li16 O21 2.183708 1_555
Li16 O33 2.229153 1_555
Li17 O21 2.043405 1_555
Li17 O1 2.048474 1_655
Li17 O33 2.167257 1_555
Li17 O19 2.172115 1_555
Li17 O3 2.182247 1_655
Li17 O15 2.222124 1_555
Li18 O20 2.075089 1_555
Li18 O16 2.095753 1_555
Li18 O34 2.147866 1_555
Li18 O32 2.158056 1_555
Li18 O31 2.178577 1_555
Li18 O18 2.251193 1_555
Li19 O22 2.054770 1_555
Li19 O17 2.085529 1_555
Li19 O4 2.135570 1_655
Li19 O1 2.165312 1_655
Li19 O13 2.233748 1_656
Li19 O19 2.239556 1_555
Li20 O22 2.097803 1_554
Li20 O18 2.102350 1_555
Li20 O35 2.111716 1_555
Li20 O8 2.115880 1_554
Li20 O24 2.122855 1_555
Li20 O34 2.150182 1_555
Li21 O6 2.033854 1_665
Li21 O27 2.035658 1_555
Li21 O23 2.147657 1_555
Li21 O24 2.181935 1_565
Li21 O9 2.195729 1_655
Li21 O35 2.230924 1_565
Li22 O3 2.091049 1_655
Li22 O26 2.101013 1_555
Li22 O25 2.112647 1_555
Li22 O12 2.123740 1_655
Li22 O19 2.123812 1_555
Li22 O4 2.130039 1_655
Li23 O28 2.061451 1_555
Li23 O30 2.081959 1_565
Li23 O6 2.137099 1_665
Li23 O10 2.205217 1_655
Li23 O23 2.217605 1_555
Li23 O7 2.260607 1_665
Cr0 O26 1.921002 1_455
Cr0 O4 1.930147 1_555
Cr0 O35 1.941396 1_456
Cr0 O22 1.964065 1_455
Cr0 O18 1.968866 1_556
Cr0 O8 1.993615 1_555
Cr1 O5 1.928662 1_555
Cr1 O15 1.933643 1_555
Cr1 O11 1.949244 1_555
Cr1 O1 1.963853 1_555
Cr1 O33 1.966137 1_455
Cr1 O29 1.981713 1_455
Cr2 O7 1.884364 1_555
Cr2 O21 1.896414 1_555
Cr2 O12 1.959785 1_555
Cr2 O19 1.975319 1_555
Cr2 O3 1.990026 1_555
Cr2 O25 2.001329 1_555
Cr3 O27 1.886889 1_555
Cr3 O13 1.890587 1_555
Cr3 O23 1.956300 1_555
Cr3 O16 1.979423 1_555
Cr3 O9 1.991474 1_555
Cr3 O31 2.000000 1_555
Cr4 O16 1.898400 1_555
Cr4 O10 1.928757 1_555
Cr4 O23 1.960708 1_555
Cr4 O32 1.961610 1_555
Cr4 O28 1.973019 1_555
Cr4 O14 1.997805 1_555
Cr5 O3 1.882988 1_655
Cr5 O25 1.901708 1_555
Cr5 O2 1.958090 1_655
Cr5 O30 1.975950 1_555
Cr5 O7 1.990023 1_655
Cr5 O21 2.000380 1_555
Cr6 O9 1.881298 1_655
Cr6 O31 1.898228 1_555
Cr6 O0 1.957256 1_654
Cr6 O17 1.981183 1_554
Cr6 O13 1.985577 1_655
Cr6 O27 2.001334 1_555
O0 Ti3 1.961982 1_455
O1 Ti3 1.994906 1_455
O2 Ti4 1.962900 1_455
O4 Ti2 2.004427 1_555
O5 Ti0 1.995744 1_555
O6 Ti4 1.987873 1_455
O6 Ti1 1.990974 1_555
O8 Ti2 1.969444 1_555
O10 Ti0 2.018618 1_555
O11 Ti3 1.972809 1_555
O12 Ti2 1.969077 1_555
O14 Ti0 1.966312 1_555
O15 Ti3 1.984880 1_555
O17 Ti3 1.960822 1_555
O18 Ti1 1.956745 1_555
O19 Ti2 1.964664 1_555
O20 Ti1 1.971086 1_555
O20 Ti4 1.978113 1_555
O22 Ti2 1.966371 1_555
O24 Ti1 1.963825 1_555
O24 Ti4 1.980561 1_555
O26 Ti2 1.979853 1_555
O28 Ti0 1.977703 1_655
O29 Ti3 1.983653 1_555
O30 Ti4 1.950987 1_555
O32 Ti0 1.958981 1_655
O33 Ti0 1.945638 1_655
O34 Ti4 1.992031 1_555
O34 Ti1 1.992357 1_655
O35 Ti1 1.979862 1_655
