# generated using pymatgen
data_BiOF
_symmetry_space_group_name_H-M   'P 1'
_cell_length_a   5.74214083
_cell_length_b   5.86575337
_cell_length_c   5.96052135
_cell_angle_alpha   90.00000000
_cell_angle_beta   96.14365206
_cell_angle_gamma   90.00000000
_symmetry_Int_Tables_number   1
_chemical_formula_structural   BiOF
_chemical_formula_sum   'Bi4 O4 F4'
_cell_volume   199.60913414
_cell_formula_units_Z   4
loop_
 _symmetry_equiv_pos_site_id
 _symmetry_equiv_pos_as_xyz
  1  'x, y, z'
loop_
 _atom_site_type_symbol
 _atom_site_label
 _atom_site_symmetry_multiplicity
 _atom_site_fract_x
 _atom_site_fract_y
 _atom_site_fract_z
 _atom_site_occupancy
  Bi  Bi0  1  0.24306591  0.45603678  0.69602581  1
  Bi  Bi1  1  0.24306591  0.04396322  0.19602581  1
  Bi  Bi2  1  0.75693409  0.95603678  0.80397419  1
  Bi  Bi3  1  0.75693409  0.54396322  0.30397419  1
  O  O0  1  0.07505188  0.17024414  0.87142642  1
  O  O1  1  0.07505188  0.32975586  0.37142642  1
  O  O2  1  0.92494812  0.67024414  0.62857358  1
  O  O3  1  0.92494812  0.82975586  0.12857358  1
  F  F0  1  0.44067617  0.75954773  0.97877765  1
  F  F1  1  0.44067617  0.74045227  0.47877765  1
  F  F2  1  0.55932383  0.25954773  0.52122235  1
  F  F3  1  0.55932383  0.24045227  0.02122235  1
loop_
_geom_bond_atom_site_label_1
_geom_bond_atom_site_label_2
_geom_bond_distance
_geom_bond_site_symmetry_2
Bi0 O1 2.196200 1_555
Bi0 O2 2.218098 1_455
Bi0 O0 2.247212 1_555
Bi0 F1 2.462137 1_555
Bi0 F2 2.473222 1_555
Bi0 F0 2.624532 1_555
Bi0 F3 2.810819 1_556
Bi1 O0 2.196200 1_554
Bi1 O3 2.218098 1_445
Bi1 O1 2.247212 1_555
Bi1 F0 2.462137 1_544
Bi1 F3 2.473222 1_555
Bi1 F1 2.624532 1_545
Bi1 F2 2.810819 1_555
Bi2 O3 2.196200 1_556
Bi2 O0 2.218098 1_665
Bi2 O2 2.247212 1_555
Bi2 F3 2.462137 1_566
Bi2 F0 2.473222 1_555
Bi2 F2 2.624532 1_565
Bi2 F1 2.810819 1_555
Bi3 O2 2.196200 1_555
Bi3 O1 2.218098 1_655
Bi3 O3 2.247212 1_555
Bi3 F2 2.462137 1_555
Bi3 F1 2.473222 1_555
Bi3 F3 2.624532 1_555
Bi3 F0 2.810819 1_554
O0 O3 2.713637 1_446
O1 O2 2.713637 1_455
F0 O3 2.857968 1_556
F0 F3 2.906641 1_566
F0 F1 2.982365 1_555
F0 F1 2.982365 1_556
F0 F3 3.124516 1_556
F0 O3 3.209758 1_456
F0 O0 3.214520 1_565
F1 O2 2.857968 1_555
F1 F2 2.906641 1_555
F1 F2 3.124516 1_565
F1 O2 3.209758 1_455
F1 O1 3.214520 1_555
F2 O1 2.857968 1_555
F2 F3 2.982365 1_556
F2 F3 2.982365 1_555
F2 O1 3.209758 1_655
F2 O2 3.214520 1_555
F3 O0 2.857968 1_554
F3 O0 3.209758 1_654
F3 O3 3.214520 1_545
