# generated using pymatgen
data_Li4Mn3Fe3(CoO8)2
_symmetry_space_group_name_H-M   'P 1'
_cell_length_a   5.87995207
_cell_length_b   5.87995207
_cell_length_c   9.38052595
_cell_angle_alpha   89.07499260
_cell_angle_beta   89.07499260
_cell_angle_gamma   59.69241313
_symmetry_Int_Tables_number   1
_chemical_formula_structural   Li4Mn3Fe3(CoO8)2
_chemical_formula_sum   'Li4 Mn3 Fe3 Co2 O16'
_cell_volume   279.94693691
_cell_formula_units_Z   1
loop_
 _symmetry_equiv_pos_site_id
 _symmetry_equiv_pos_as_xyz
  1  'x, y, z'
loop_
 _atom_site_type_symbol
 _atom_site_label
 _atom_site_symmetry_multiplicity
 _atom_site_fract_x
 _atom_site_fract_y
 _atom_site_fract_z
 _atom_site_occupancy
  Li  Li0  1  0.66869700  0.66869700  0.89440700  1
  Li  Li1  1  0.99904800  0.99904800  0.99733800  1
  Li  Li2  1  0.00196100  0.00196100  0.49546600  1
  Li  Li3  1  0.33428500  0.33428500  0.39443900  1
  Mn  Mn0  1  0.82733500  0.82733500  0.21410000  1
  Mn  Mn1  1  0.66190300  0.16895600  0.71295300  1
  Mn  Mn2  1  0.16895600  0.66190300  0.71295300  1
  Fe  Fe0  1  0.82853800  0.33922300  0.21217200  1
  Fe  Fe1  1  0.33922300  0.82853800  0.21217200  1
  Fe  Fe2  1  0.16839600  0.16839600  0.71104600  1
  Co  Co0  1  0.66290400  0.66290400  0.48114900  1
  Co  Co1  1  0.33092900  0.33092900  0.98409800  1
  O  O0  1  0.82805000  0.33317100  0.60004200  1
  O  O1  1  0.52252800  0.52252800  0.34892100  1
  O  O2  1  0.67228400  0.67228400  0.10147600  1
  O  O3  1  0.99308500  0.99308500  0.30697200  1
  O  O4  1  0.99373800  0.99373800  0.80919000  1
  O  O5  1  0.33317100  0.82805000  0.60004200  1
  O  O6  1  0.95616200  0.52832300  0.34494400  1
  O  O7  1  0.52832300  0.95616200  0.34494400  1
  O  O8  1  0.16955600  0.16955600  0.09512600  1
  O  O9  1  0.83765600  0.83765600  0.60320800  1
  O  O10  1  0.48593000  0.04355400  0.84415600  1
  O  O11  1  0.04355400  0.48593000  0.84415600  1
  O  O12  1  0.34099600  0.34099600  0.60543700  1
  O  O13  1  0.66223200  0.16214100  0.09857100  1
  O  O14  1  0.47857800  0.47857800  0.83979800  1
  O  O15  1  0.16214100  0.66223200  0.09857100  1
loop_
_geom_bond_atom_site_label_1
_geom_bond_atom_site_label_2
_geom_bond_distance
_geom_bond_site_symmetry_2
Li0 O2 1.943441 1_556
Li0 O11 1.956387 1_655
Li0 O10 1.956387 1_565
Li0 O14 2.014952 1_555
Li1 O4 1.766765 1_555
Li1 O13 1.948197 1_566
Li1 O15 1.948197 1_656
Li1 O8 1.981327 1_666
Li2 O3 1.772171 1_445
Li2 O9 1.940917 1_445
Li2 O0 1.954501 1_455
Li2 O5 1.954501 1_545
Li3 O1 1.959231 1_555
Li3 O7 1.979026 1_545
Li3 O6 1.979026 1_455
Li3 O12 1.981728 1_555
Mn0 O3 1.916289 1_555
Mn0 O2 1.918228 1_555
Mn0 O6 1.946183 1_555
Mn0 O7 1.946183 1_555
Mn0 O15 2.007149 1_655
Mn0 O13 2.007149 1_565
Mn1 O4 1.918709 1_545
Mn1 O12 1.924306 1_555
Mn1 O10 1.956706 1_555
Mn1 O0 1.973374 1_555
Mn1 O9 1.980189 1_545
Mn1 O14 1.984957 1_555
Mn2 O4 1.918709 1_455
Mn2 O12 1.924306 1_555
Mn2 O11 1.956706 1_555
Mn2 O5 1.973374 1_555
Mn2 O9 1.980189 1_455
Mn2 O14 1.984957 1_555
Fe0 O3 1.962432 1_545
Fe0 O2 1.976559 1_555
Fe0 O1 2.014336 1_555
Fe0 O8 2.041266 1_655
Fe0 O6 2.065837 1_555
Fe0 O13 2.067147 1_555
Fe1 O3 1.962432 1_455
Fe1 O2 1.976559 1_555
Fe1 O1 2.014336 1_555
Fe1 O8 2.041266 1_565
Fe1 O7 2.065837 1_555
Fe1 O15 2.067147 1_555
Fe2 O4 1.990072 1_445
Fe2 O12 2.003997 1_555
Fe2 O5 2.026234 1_545
Fe2 O0 2.026234 1_455
Fe2 O11 2.060669 1_555
Fe2 O10 2.060669 1_555
Co0 O1 1.911760 1_555
Co0 O6 1.953544 1_555
Co0 O7 1.953544 1_555
Co0 O0 2.002691 1_555
Co0 O5 2.002691 1_555
Co0 O9 2.136404 1_555
Co1 O8 1.931400 1_556
Co1 O10 1.971756 1_555
Co1 O11 1.971756 1_555
Co1 O15 2.003688 1_556
Co1 O13 2.003688 1_556
Co1 O14 2.006122 1_555
