# generated using pymatgen
data_SrSn2Cl6O5
_symmetry_space_group_name_H-M   'P 1'
_cell_length_a   9.76057749
_cell_length_b   9.76057749
_cell_length_c   10.56484214
_cell_angle_alpha   75.97309453
_cell_angle_beta   75.97309453
_cell_angle_gamma   112.28683118
_symmetry_Int_Tables_number   1
_chemical_formula_structural   SrSn2Cl6O5
_chemical_formula_sum   'Sr2 Sn4 Cl12 O10'
_cell_volume   838.55571192
_cell_formula_units_Z   2
loop_
 _symmetry_equiv_pos_site_id
 _symmetry_equiv_pos_as_xyz
  1  'x, y, z'
loop_
 _atom_site_type_symbol
 _atom_site_label
 _atom_site_symmetry_multiplicity
 _atom_site_fract_x
 _atom_site_fract_y
 _atom_site_fract_z
 _atom_site_occupancy
  Sr  Sr0  1  0.09497800  0.90502200  0.75000000  1
  Sr  Sr1  1  0.90502200  0.09497800  0.25000000  1
  Sn  Sn0  1  0.62453500  0.79773700  0.90500500  1
  Sn  Sn1  1  0.20226300  0.37546500  0.59499500  1
  Sn  Sn2  1  0.37546500  0.20226300  0.09499500  1
  Sn  Sn3  1  0.79773700  0.62453500  0.40500500  1
  Cl  Cl0  1  0.53227300  0.85869900  0.71672300  1
  Cl  Cl1  1  0.14130100  0.46772700  0.78327700  1
  Cl  Cl2  1  0.46772700  0.14130100  0.28327700  1
  Cl  Cl3  1  0.85869900  0.53227300  0.21672300  1
  Cl  Cl4  1  0.38897300  0.58898700  0.08058300  1
  Cl  Cl5  1  0.41101300  0.61102700  0.41941700  1
  Cl  Cl6  1  0.61102700  0.41101300  0.91941700  1
  Cl  Cl7  1  0.58898700  0.38897300  0.58058300  1
  Cl  Cl8  1  0.32651300  0.00008800  0.00036900  1
  Cl  Cl9  1  0.99991200  0.67348700  0.49963100  1
  Cl  Cl10  1  0.67348700  0.99991200  0.99963100  1
  Cl  Cl11  1  0.00008800  0.32651300  0.50036900  1
  O  O0  1  0.82036100  0.79243000  0.83321000  1
  O  O1  1  0.20757000  0.17963900  0.66679000  1
  O  O2  1  0.17963900  0.20757000  0.16679000  1
  O  O3  1  0.79243000  0.82036100  0.33321000  1
  O  O4  1  0.98890700  0.93009000  0.01847600  1
  O  O5  1  0.06991000  0.01109300  0.48152400  1
  O  O6  1  0.01109300  0.06991000  0.98152400  1
  O  O7  1  0.93009000  0.98890700  0.51847600  1
  O  O8  1  0.24696100  0.75303900  0.75000000  1
  O  O9  1  0.75303900  0.24696100  0.25000000  1
loop_
_geom_bond_atom_site_label_1
_geom_bond_atom_site_label_2
_geom_bond_distance
_geom_bond_site_symmetry_2
Cl0 Sn0 2.413052 1_555
Cl0 O8 2.472576 1_555
Cl1 Sn1 2.413052 1_555
Cl1 O8 2.472576 1_555
Cl2 Sn2 2.413052 1_555
Cl2 O9 2.472576 1_555
Cl3 Sn3 2.413052 1_555
Cl3 O9 2.472576 1_555
Cl4 Sn0 2.329352 1_554
Cl4 O2 3.247867 1_555
Cl5 Sn1 2.329352 1_555
Cl5 O3 3.247867 1_555
Cl6 Sn2 2.329352 1_556
Cl6 O0 3.247867 1_555
Cl7 Sn3 2.329352 1_555
Cl7 O1 3.247867 1_555
Cl8 Sn2 2.365271 1_555
Cl8 O4 3.047188 1_445
Cl9 Sn3 2.365271 1_555
Cl9 O5 3.047188 1_665
Cl10 Sn0 2.365271 1_555
Cl10 O6 3.047188 1_665
Cl11 Sn1 2.365271 1_555
Cl11 O7 3.047188 1_445
O0 Sn0 1.903343 1_555
O0 Sr0 2.306589 1_655
O1 Sn1 1.903343 1_555
O1 Sr0 2.306589 1_545
O2 Sn2 1.903343 1_555
O2 Sr1 2.306589 1_455
O3 Sn3 1.903343 1_555
O3 Sr1 2.306589 1_565
O4 O6 1.240310 1_664
O4 Sr0 2.877845 1_654
O5 O7 1.240310 1_445
O5 Sr0 2.877845 1_545
O6 Sr1 2.877845 1_456
O7 Sr1 2.877845 1_565
O8 Sr0 2.463803 1_555
O9 Sr1 2.463803 1_555
