# generated using pymatgen
data_Na2SrLiVP2O9
_symmetry_space_group_name_H-M   'P 1'
_cell_length_a   6.98519600
_cell_length_b   10.69487900
_cell_length_c   10.76400200
_cell_angle_alpha   90.00000000
_cell_angle_beta   90.00000000
_cell_angle_gamma   90.00000000
_symmetry_Int_Tables_number   1
_chemical_formula_structural   Na2SrLiVP2O9
_chemical_formula_sum   'Na8 Sr4 Li4 V4 P8 O36'
_cell_volume   804.13366060
_cell_formula_units_Z   4
loop_
 _symmetry_equiv_pos_site_id
 _symmetry_equiv_pos_as_xyz
  1  'x, y, z'
loop_
 _atom_site_type_symbol
 _atom_site_label
 _atom_site_symmetry_multiplicity
 _atom_site_fract_x
 _atom_site_fract_y
 _atom_site_fract_z
 _atom_site_occupancy
  Na  Na0  1  0.48598400  0.64494500  0.76732300  1
  Na  Na1  1  0.01315700  0.65486900  0.75405600  1
  Na  Na2  1  0.51315700  0.15486900  0.74594400  1
  Na  Na3  1  0.98598400  0.14494500  0.73267700  1
  Na  Na4  1  0.01315700  0.84513100  0.25405600  1
  Na  Na5  1  0.48598400  0.85505500  0.26732300  1
  Na  Na6  1  0.51315700  0.34513100  0.24594400  1
  Na  Na7  1  0.98598400  0.35505500  0.23267700  1
  Sr  Sr0  1  0.75069400  0.92279700  0.93536700  1
  Sr  Sr1  1  0.25069400  0.42279700  0.56463300  1
  Sr  Sr2  1  0.75069400  0.57720300  0.43536700  1
  Sr  Sr3  1  0.25069400  0.07720300  0.06463300  1
  Li  Li0  1  0.96292900  0.49549900  0.96326500  1
  Li  Li1  1  0.46292900  0.99549900  0.53673500  1
  Li  Li2  1  0.96292900  0.00450100  0.46326500  1
  Li  Li3  1  0.46292900  0.50450100  0.03673500  1
  V  V0  1  0.74025900  0.29255200  0.97401300  1
  V  V1  1  0.24025900  0.79255200  0.52598700  1
  V  V2  1  0.74025900  0.20744800  0.47401300  1
  V  V3  1  0.24025900  0.70744800  0.02598700  1
  P  P0  1  0.24768000  0.35700100  0.91233100  1
  P  P1  1  0.25308300  0.91534900  0.80937300  1
  P  P2  1  0.75308300  0.41534900  0.69062700  1
  P  P3  1  0.74768000  0.85700100  0.58766900  1
  P  P4  1  0.24768000  0.14299900  0.41233100  1
  P  P5  1  0.25308300  0.58465100  0.30937300  1
  P  P6  1  0.75308300  0.08465100  0.19062700  1
  P  P7  1  0.74768000  0.64299900  0.08766900  1
  O  O0  1  0.42879700  0.32138400  0.99341300  1
  O  O1  1  0.06751700  0.31632400  0.98963200  1
  O  O2  1  0.24221400  0.50409200  0.90292300  1
  O  O3  1  0.75082300  0.14989300  0.89021300  1
  O  O4  1  0.42808600  0.98273900  0.86347000  1
  O  O5  1  0.07317100  0.98163400  0.85775900  1
  O  O6  1  0.24952300  0.77457800  0.84825900  1
  O  O7  1  0.76306300  0.42494900  0.83638100  1
  O  O8  1  0.25387800  0.29354500  0.78407800  1
  O  O9  1  0.75387800  0.79354500  0.71592200  1
  O  O10  1  0.26306300  0.92494900  0.66361900  1
  O  O11  1  0.74952300  0.27457800  0.65174100  1
  O  O12  1  0.57317100  0.48163400  0.64224100  1
  O  O13  1  0.92808600  0.48273900  0.63653000  1
  O  O14  1  0.25082300  0.64989300  0.60978700  1
  O  O15  1  0.74221400  0.00409200  0.59707700  1
  O  O16  1  0.92879700  0.82138400  0.50658700  1
  O  O17  1  0.56751700  0.81632400  0.51036800  1
  O  O18  1  0.42879700  0.17861600  0.49341300  1
  O  O19  1  0.06751700  0.18367600  0.48963200  1
  O  O20  1  0.24221400  0.99590800  0.40292300  1
  O  O21  1  0.75082300  0.35010700  0.39021300  1
  O  O22  1  0.42808600  0.51726100  0.36347000  1
  O  O23  1  0.07317100  0.51836600  0.35775900  1
  O  O24  1  0.24952300  0.72542200  0.34825900  1
  O  O25  1  0.76306300  0.07505100  0.33638100  1
  O  O26  1  0.25387800  0.20645500  0.28407800  1
  O  O27  1  0.75387800  0.70645500  0.21592200  1
  O  O28  1  0.26306300  0.57505100  0.16361900  1
  O  O29  1  0.74952300  0.22542200  0.15174100  1
  O  O30  1  0.92808600  0.01726100  0.13653000  1
  O  O31  1  0.57317100  0.01836600  0.14224100  1
  O  O32  1  0.25082300  0.85010700  0.10978700  1
  O  O33  1  0.74221400  0.49590800  0.09707700  1
  O  O34  1  0.92879700  0.67861600  0.00658700  1
  O  O35  1  0.56751700  0.68367600  0.01036800  1
loop_
_geom_bond_atom_site_label_1
_geom_bond_atom_site_label_2
_geom_bond_distance
_geom_bond_site_symmetry_2
Na0 O12 2.287844 1_555
Na0 O6 2.325793 1_555
Na0 O14 2.361471 1_555
Na0 O9 2.516664 1_555
Na0 O2 2.701694 1_555
Na0 O35 2.709264 1_556
Na0 O7 3.135975 1_555
Na1 O14 2.273861 1_555
Na1 O13 2.311367 1_455
Na1 O6 2.322349 1_555
Na1 O9 2.376611 1_455
Na1 O2 2.779931 1_555
Na1 O34 2.792954 1_456
Na2 O3 2.273861 1_555
Na2 O4 2.311367 1_545
Na2 O11 2.322349 1_555
Na2 O8 2.376611 1_555
Na2 O15 2.779931 1_555
Na2 O18 2.792954 1_555
Na3 O5 2.287844 1_645
Na3 O11 2.325793 1_555
Na3 O3 2.361471 1_555
Na3 O8 2.516664 1_655
Na3 O15 2.701694 1_555
Na3 O19 2.709264 1_655
Na3 O10 3.135975 1_645
Na4 O32 2.273861 1_555
Na4 O30 2.311367 1_465
Na4 O24 2.322349 1_555
Na4 O27 2.376611 1_455
Na4 O20 2.779931 1_555
Na4 O16 2.792954 1_455
Na5 O31 2.287844 1_565
Na5 O24 2.325793 1_555
Na5 O32 2.361471 1_555
Na5 O27 2.516664 1_555
Na5 O20 2.701694 1_555
Na5 O17 2.709264 1_555
Na5 O25 3.135975 1_565
Na6 O21 2.273861 1_555
Na6 O22 2.311367 1_555
Na6 O29 2.322349 1_555
Na6 O26 2.376611 1_555
Na6 O33 2.779931 1_555
Na6 O0 2.792954 1_554
Na7 O23 2.287844 1_655
Na7 O29 2.325793 1_555
Na7 O21 2.361471 1_555
Na7 O26 2.516664 1_655
Na7 O33 2.701694 1_555
Na7 O1 2.709264 1_654
Na7 O28 3.135975 1_655
Li0 O34 2.027235 1_556
Li0 O2 2.058198 1_655
Li0 O1 2.070341 1_655
Li0 O7 2.093744 1_555
Li0 O33 2.109879 1_556
Li0 Na1 2.845943 1_655
Li1 O18 2.027235 1_565
Li1 O15 2.058198 1_565
Li1 O17 2.070341 1_555
Li1 O10 2.093744 1_555
Li1 O20 2.109879 1_555
Li1 Na2 2.845943 1_565
Li2 O16 2.027235 1_545
Li2 O20 2.058198 1_645
Li2 O19 2.070341 1_655
Li2 O25 2.093744 1_555
Li2 O15 2.109879 1_555
Li2 Na4 2.845943 1_645
Li3 O0 2.027235 1_554
Li3 O33 2.058198 1_555
Li3 O35 2.070341 1_555
Li3 O28 2.093744 1_555
Li3 O2 2.109879 1_554
Li3 Na6 2.845943 1_555
O0 P0 1.583476 1_555
O0 V0 2.207266 1_555
O0 Sr3 2.992541 1_556
O1 P0 1.570143 1_555
O1 V0 2.306192 1_455
O1 Sr3 2.971377 1_556
O2 P0 1.576839 1_555
O3 V0 1.773955 1_555
O3 Sr0 2.476919 1_545
O4 P1 1.533903 1_555
O4 Sr0 2.467401 1_555
O4 Sr3 2.691596 1_566
O5 P1 1.534002 1_555
O5 Sr0 2.483517 1_455
O5 Sr3 2.746083 1_566
O6 P1 1.562829 1_555
O6 V3 2.044371 1_556
O7 P2 1.573797 1_555
O7 V0 2.055505 1_555
O8 P0 1.538918 1_555
O8 Sr1 2.736949 1_555
O9 P3 1.538918 1_555
O9 Sr0 2.736949 1_555
O10 P1 1.573797 1_555
O10 V1 2.055505 1_555
O11 P2 1.562829 1_555
O11 V2 2.044371 1_555
O12 P2 1.534002 1_555
O12 Sr1 2.483517 1_555
O12 Sr2 2.746083 1_555
O13 P2 1.533903 1_555
O13 Sr1 2.467401 1_655
O13 Sr2 2.691596 1_555
O14 V1 1.773955 1_555
O14 Sr1 2.476919 1_555
O15 P3 1.576839 1_545
O16 P3 1.583476 1_555
O16 V1 2.207266 1_655
O16 Sr2 2.992541 1_555
O17 P3 1.570143 1_555
O17 V1 2.306192 1_555
O17 Sr2 2.971377 1_555
O18 P4 1.583476 1_555
O18 V2 2.207266 1_555
O18 Sr1 2.992541 1_555
O19 P4 1.570143 1_555
O19 V2 2.306192 1_455
O19 Sr1 2.971377 1_555
O20 P4 1.576839 1_565
O21 V2 1.773955 1_555
O21 Sr2 2.476919 1_555
O22 P5 1.533903 1_555
O22 Sr2 2.467401 1_555
O22 Sr1 2.691596 1_555
O23 P5 1.534002 1_555
O23 Sr2 2.483517 1_455
O23 Sr1 2.746083 1_555
O24 P5 1.562829 1_555
O24 V1 2.044371 1_555
O25 P6 1.573797 1_555
O25 V2 2.055505 1_555
O26 P4 1.538918 1_555
O26 Sr3 2.736949 1_555
O27 P7 1.538918 1_555
O27 Sr2 2.736949 1_555
O28 P5 1.573797 1_555
O28 V3 2.055505 1_555
O29 P6 1.562829 1_555
O29 V0 2.044371 1_554
O30 P6 1.533903 1_555
O30 Sr3 2.467401 1_655
O30 Sr0 2.691596 1_544
O31 P6 1.534002 1_555
O31 Sr3 2.483517 1_555
O31 Sr0 2.746083 1_544
O32 V3 1.773955 1_555
O32 Sr3 2.476919 1_565
O33 P7 1.576839 1_555
O34 P7 1.583476 1_555
O34 V3 2.207266 1_655
O34 Sr0 2.992541 1_554
O35 P7 1.570143 1_555
O35 V3 2.306192 1_555
O35 Sr0 2.971377 1_554
