# generated using pymatgen
data_Cu2(SO4)3
_symmetry_space_group_name_H-M   'P 1'
_cell_length_a   7.82272045
_cell_length_b   7.82272045
_cell_length_c   9.75112418
_cell_angle_alpha   61.79947404
_cell_angle_beta   61.79947404
_cell_angle_gamma   61.94691232
_symmetry_Int_Tables_number   1
_chemical_formula_structural   Cu2(SO4)3
_chemical_formula_sum   'Cu4 S6 O24'
_cell_volume   439.40874460
_cell_formula_units_Z   2
loop_
 _symmetry_equiv_pos_site_id
 _symmetry_equiv_pos_as_xyz
  1  'x, y, z'
loop_
 _atom_site_type_symbol
 _atom_site_label
 _atom_site_symmetry_multiplicity
 _atom_site_fract_x
 _atom_site_fract_y
 _atom_site_fract_z
 _atom_site_occupancy
  Cu  Cu0  1  0.36656200  0.86509700  0.97020400  1
  Cu  Cu1  1  0.86509700  0.36656200  0.47020400  1
  Cu  Cu2  1  0.13490300  0.63343800  0.52979600  1
  Cu  Cu3  1  0.63343800  0.13490300  0.02979600  1
  S  S0  1  0.75496200  0.53854900  0.83269600  1
  S  S1  1  0.53854900  0.75496200  0.33269600  1
  S  S2  1  0.03189900  0.96810100  0.75000000  1
  S  S3  1  0.96810100  0.03189900  0.25000000  1
  S  S4  1  0.46145100  0.24503800  0.66730400  1
  S  S5  1  0.24503800  0.46145100  0.16730400  1
  O  O0  1  0.82795600  0.97829000  0.88640900  1
  O  O1  1  0.97829000  0.82795600  0.38640900  1
  O  O2  1  0.85829600  0.47699600  0.94466600  1
  O  O3  1  0.59828700  0.75020700  0.81000600  1
  O  O4  1  0.88906200  0.55258900  0.65671200  1
  O  O5  1  0.47699600  0.85829600  0.44466600  1
  O  O6  1  0.19046300  0.93483100  0.80693500  1
  O  O7  1  0.64255400  0.39645700  0.87605200  1
  O  O8  1  0.75020700  0.59828700  0.31000600  1
  O  O9  1  0.55258900  0.88906200  0.15671200  1
  O  O10  1  0.93483100  0.19046300  0.30693500  1
  O  O11  1  0.60354300  0.35744600  0.62394800  1
  O  O12  1  0.39645700  0.64255400  0.37605200  1
  O  O13  1  0.06516900  0.80953700  0.69306500  1
  O  O14  1  0.44741100  0.11093800  0.84328800  1
  O  O15  1  0.24979300  0.40171300  0.68999400  1
  O  O16  1  0.35744600  0.60354300  0.12394800  1
  O  O17  1  0.80953700  0.06516900  0.19306500  1
  O  O18  1  0.52300400  0.14170400  0.55533400  1
  O  O19  1  0.11093800  0.44741100  0.34328800  1
  O  O20  1  0.40171300  0.24979300  0.18999400  1
  O  O21  1  0.14170400  0.52300400  0.05533400  1
  O  O22  1  0.02171000  0.17204400  0.61359100  1
  O  O23  1  0.17204400  0.02171000  0.11359100  1
loop_
_geom_bond_atom_site_label_1
_geom_bond_atom_site_label_2
_geom_bond_distance
_geom_bond_site_symmetry_2
Cu0 O16 1.891065 1_556
Cu0 O23 1.904214 1_566
Cu0 O3 1.911062 1_555
Cu0 O14 1.945494 1_565
Cu0 O6 2.296758 1_555
Cu1 O11 1.891065 1_555
Cu1 O22 1.904214 1_655
Cu1 O8 1.911062 1_555
Cu1 O19 1.945494 1_655
Cu1 O10 2.296758 1_555
Cu2 O12 1.891065 1_555
Cu2 O1 1.904214 1_455
Cu2 O15 1.911062 1_555
Cu2 O4 1.945494 1_455
Cu2 O13 2.296758 1_555
Cu3 O7 1.891065 1_554
Cu3 O0 1.904214 1_544
Cu3 O20 1.911062 1_555
Cu3 O9 1.945494 1_545
Cu3 O17 2.296758 1_555
O0 S2 1.515211 1_655
O1 S3 1.515211 1_565
O2 S0 1.431278 1_555
O3 S0 1.514567 1_555
O4 S0 1.512013 1_555
O5 S1 1.431278 1_555
O6 S2 1.457807 1_555
O7 S0 1.520314 1_555
O8 S1 1.514567 1_555
O9 S1 1.512013 1_555
O10 S3 1.457807 1_555
O11 S4 1.520314 1_555
O12 S1 1.520314 1_555
O13 S2 1.457807 1_555
O14 S4 1.512013 1_555
O15 S4 1.514567 1_555
O16 S5 1.520314 1_555
O17 S3 1.457807 1_555
O18 S4 1.431278 1_555
O19 S5 1.512013 1_555
O20 S5 1.514567 1_555
O21 S5 1.431278 1_555
O22 S2 1.515211 1_545
O23 S3 1.515211 1_455
