# generated using pymatgen
data_Sr4Ta2O9
_symmetry_space_group_name_H-M   'P 1'
_cell_length_a   5.94943200
_cell_length_b   5.95442236
_cell_length_c   15.84131328
_cell_angle_alpha   89.94577924
_cell_angle_beta   89.96529263
_cell_angle_gamma   60.04080426
_symmetry_Int_Tables_number   1
_chemical_formula_structural   Sr4Ta2O9
_chemical_formula_sum   'Sr8 Ta4 O18'
_cell_volume   486.20025172
_cell_formula_units_Z   2
loop_
 _symmetry_equiv_pos_site_id
 _symmetry_equiv_pos_as_xyz
  1  'x, y, z'
loop_
 _atom_site_type_symbol
 _atom_site_label
 _atom_site_symmetry_multiplicity
 _atom_site_fract_x
 _atom_site_fract_y
 _atom_site_fract_z
 _atom_site_occupancy
  Sr  Sr0  1  0.99923800  0.00207000  0.25562500  1
  Sr  Sr1  1  0.00000000  0.00000000  0.50000000  1
  Sr  Sr2  1  0.00000000  0.00000000  0.00000000  1
  Sr  Sr3  1  0.66625500  0.66909500  0.35611000  1
  Sr  Sr4  1  0.66737200  0.66356900  0.13202100  1
  Sr  Sr5  1  0.33262800  0.33643100  0.86797900  1
  Sr  Sr6  1  0.33374500  0.33090500  0.64389000  1
  Sr  Sr7  1  0.00076200  0.99793000  0.74437500  1
  Ta  Ta0  1  0.66481800  0.66952500  0.84985900  1
  Ta  Ta1  1  0.66727100  0.66490500  0.65966200  1
  Ta  Ta2  1  0.33272900  0.33509500  0.34033800  1
  Ta  Ta3  1  0.33518200  0.33047500  0.15014100  1
  O  O0  1  0.59488800  0.95920100  0.75286000  1
  O  O1  1  0.91906700  0.73042300  0.60687700  1
  O  O2  1  0.92142800  0.72656400  0.90103700  1
  O  O3  1  0.34873200  0.91608400  0.60723300  1
  O  O4  1  0.35485100  0.92692500  0.90229000  1
  O  O5  1  0.95774900  0.44480100  0.75392100  1
  O  O6  1  0.44597700  0.59454100  0.75430200  1
  O  O7  1  0.28315200  0.63543600  0.09426000  1
  O  O8  1  0.26720800  0.65288100  0.39263100  1
  O  O9  1  0.73279200  0.34711900  0.60736900  1
  O  O10  1  0.71684800  0.36456400  0.90574000  1
  O  O11  1  0.55402300  0.40545900  0.24569800  1
  O  O12  1  0.04225100  0.55519900  0.24607900  1
  O  O13  1  0.64514900  0.07307500  0.09771000  1
  O  O14  1  0.65126800  0.08391600  0.39276700  1
  O  O15  1  0.07857200  0.27343600  0.09896300  1
  O  O16  1  0.08093300  0.26957700  0.39312300  1
  O  O17  1  0.40511200  0.04079900  0.24714000  1
loop_
_geom_bond_atom_site_label_1
_geom_bond_atom_site_label_2
_geom_bond_distance
_geom_bond_site_symmetry_2
O0 Ta1 2.164796 1_555
O0 Ta0 2.188231 1_555
O0 Sr7 2.541227 1_655
O0 Sr6 2.617997 1_565
O0 Sr5 2.703598 1_565
O0 O6 2.724206 1_555
O0 O5 2.727308 1_555
O0 O3 2.813054 1_555
O0 O4 2.819397 1_555
O0 O1 2.880959 1_555
O0 O2 2.917964 1_555
O1 Ta1 1.917575 1_555
O1 Sr6 2.495376 1_655
O1 Sr1 2.537862 1_665
O1 O5 2.823755 1_555
O1 Sr7 2.880767 1_655
O2 Ta0 1.903494 1_555
O2 Sr5 2.445460 1_655
O2 Sr2 2.468394 1_666
O2 O5 2.817351 1_555
O2 Sr7 3.121759 1_655
O3 Ta1 1.920119 1_555
O3 Sr6 2.495764 1_565
O3 Sr1 2.531236 1_565
O3 Sr7 2.869149 1_555
O3 O6 2.883591 1_555
O4 Ta0 1.901931 1_555
O4 Sr5 2.436012 1_565
O4 Sr2 2.474273 1_566
O4 O6 2.939797 1_555
O4 Sr7 3.160595 1_555
O5 Ta1 2.161282 1_555
O5 Ta0 2.192949 1_555
O5 Sr7 2.547382 1_645
O5 Sr6 2.642805 1_655
O5 Sr5 2.687118 1_655
O5 O6 2.711849 1_555
O5 O9 2.881502 1_555
O6 Ta1 2.168854 1_555
O6 Ta0 2.184079 1_555
O6 Sr7 2.540771 1_555
O6 Sr6 2.650069 1_555
O6 Sr5 2.662350 1_555
O6 O9 2.826809 1_555
O7 Ta3 1.900712 1_555
O7 Sr4 2.448567 1_555
O7 Sr2 2.474733 1_565
O7 Sr0 3.236624 1_465
O8 Ta2 1.919530 1_555
O8 Sr3 2.491496 1_555
O8 Sr1 2.532562 1_565
O8 Sr0 2.874055 1_465
O9 Ta1 1.919530 1_555
O9 Sr6 2.491496 1_555
O9 Sr1 2.532562 1_655
O9 Sr7 2.874055 1_645
O10 Ta0 1.900712 1_555
O10 Sr5 2.448567 1_555
O10 Sr2 2.474733 1_656
O10 O6 2.832262 1_555
O10 O5 2.957030 1_555
O10 Sr7 3.236624 1_645
O11 Ta2 2.168854 1_555
O11 Ta3 2.184079 1_555
O11 Sr0 2.540771 1_555
O11 Sr3 2.650069 1_555
O11 Sr4 2.662350 1_555
O11 O12 2.711849 1_555
O11 O17 2.724206 1_555
O11 O8 2.826809 1_555
O11 O7 2.832262 1_555
O11 O14 2.883591 1_555
O11 O13 2.939797 1_555
O12 Ta2 2.161282 1_555
O12 Ta3 2.192949 1_555
O12 Sr0 2.547382 1_465
O12 Sr3 2.642805 1_455
O12 Sr4 2.687118 1_455
O12 O17 2.727308 1_555
O12 O15 2.817351 1_555
O12 O16 2.823755 1_555
O12 O8 2.881502 1_555
O12 O7 2.957030 1_555
O13 Ta3 1.901931 1_555
O13 Sr4 2.436012 1_545
O13 Sr2 2.474273 1_655
O13 O17 2.819397 1_555
O13 Sr0 3.160595 1_555
O14 Ta2 1.920119 1_555
O14 Sr3 2.495764 1_545
O14 Sr1 2.531236 1_655
O14 O17 2.813054 1_555
O14 Sr0 2.869149 1_555
O15 Ta3 1.903494 1_555
O15 Sr4 2.445460 1_455
O15 Sr2 2.468394 1_555
O15 O17 2.917964 1_555
O15 Sr0 3.121759 1_455
O16 Ta2 1.917575 1_555
O16 Sr3 2.495376 1_455
O16 Sr1 2.537862 1_555
O16 Sr0 2.880767 1_455
O16 O17 2.880959 1_555
O17 Ta2 2.164796 1_555
O17 Ta3 2.188231 1_555
O17 Sr0 2.541227 1_455
O17 Sr3 2.617997 1_545
O17 Sr4 2.703598 1_545
