# generated using pymatgen
data_Li2Mn3(BO3)3
_symmetry_space_group_name_H-M   'P 1'
_cell_length_a   8.25148917
_cell_length_b   8.25148917
_cell_length_c   9.46723100
_cell_angle_alpha   90.00000000
_cell_angle_beta   90.00000000
_cell_angle_gamma   119.99999334
_symmetry_Int_Tables_number   1
_chemical_formula_structural   Li2Mn3(BO3)3
_chemical_formula_sum   'Li6 Mn9 B9 O27'
_cell_volume   558.23659459
_cell_formula_units_Z   3
loop_
 _symmetry_equiv_pos_site_id
 _symmetry_equiv_pos_as_xyz
  1  'x, y, z'
loop_
 _atom_site_type_symbol
 _atom_site_label
 _atom_site_symmetry_multiplicity
 _atom_site_fract_x
 _atom_site_fract_y
 _atom_site_fract_z
 _atom_site_occupancy
  Li  Li0  1  0.29739900  0.28759000  0.16739300  1
  Li  Li1  1  0.29381900  0.26788900  0.49940300  1
  Li  Li2  1  0.97407000  0.70618100  0.83273600  1
  Li  Li3  1  0.99019200  0.70260100  0.50072600  1
  Li  Li4  1  0.73211100  0.02593000  0.16606900  1
  Li  Li5  1  0.71241000  0.00980800  0.83405900  1
  Mn  Mn0  1  0.00571400  0.37087500  0.33551400  1
  Mn  Mn1  1  0.01611300  0.39616900  0.00172800  1
  Mn  Mn2  1  0.00354000  0.34625300  0.67015300  1
  Mn  Mn3  1  0.34271300  0.99646000  0.00348600  1
  Mn  Mn4  1  0.36516100  0.99428600  0.66884700  1
  Mn  Mn5  1  0.38005600  0.98388700  0.33506200  1
  Mn  Mn6  1  0.60383100  0.61994400  0.66839500  1
  Mn  Mn7  1  0.62912500  0.63483900  0.00218000  1
  Mn  Mn8  1  0.65374700  0.65728700  0.33681900  1
  B  B0  1  0.02342300  0.00580300  0.32750300  1
  B  B1  1  0.66143300  0.33368000  0.49895100  1
  B  B2  1  0.66632000  0.32775300  0.16561800  1
  B  B3  1  0.98238100  0.97657700  0.66083600  1
  B  B4  1  0.67224700  0.33856700  0.83228500  1
  B  B5  1  0.99419700  0.01761900  0.99417000  1
  B  B6  1  0.32142200  0.66386400  0.83782700  1
  B  B7  1  0.33613600  0.65755700  0.50449400  1
  B  B8  1  0.34244300  0.67857800  0.17116100  1
  O  O0  1  0.18432900  0.11793700  0.01436000  1
  O  O1  1  0.17285200  0.07592600  0.64069700  1
  O  O2  1  0.22040500  0.11187500  0.32884500  1
  O  O3  1  0.57736900  0.44389200  0.50944000  1
  O  O4  1  0.58781100  0.44072100  0.16910200  1
  O  O5  1  0.59822000  0.45726300  0.82083100  1
  O  O6  1  0.54273700  0.14095700  0.48749800  1
  O  O7  1  0.55610800  0.13347700  0.17610700  1
  O  O8  1  0.55927900  0.14709000  0.83576900  1
  O  O9  1  0.90307400  0.82714800  0.97403000  1
  O  O10  1  0.93360800  0.81567100  0.34769300  1
  O  O11  1  0.89147000  0.77959500  0.66217800  1
  O  O12  1  0.85291000  0.41218900  0.50243500  1
  O  O13  1  0.85904300  0.40178000  0.15416500  1
  O  O14  1  0.86652300  0.42263100  0.84277300  1
  O  O15  1  0.88812500  0.10853000  0.99551100  1
  O  O16  1  0.88206300  0.06639200  0.68102600  1
  O  O17  1  0.92407400  0.09692600  0.30736400  1
  O  O18  1  0.25019800  0.78409700  0.83995200  1
  O  O19  1  0.26643200  0.78032700  0.48844900  1
  O  O20  1  0.26734700  0.79543300  0.18571100  1
  O  O21  1  0.20456700  0.47191400  0.85237800  1
  O  O22  1  0.21590300  0.46610000  0.50661900  1
  O  O23  1  0.21967300  0.48610500  0.15511500  1
  O  O24  1  0.51389500  0.73356800  0.82178200  1
  O  O25  1  0.52808600  0.73265300  0.51904400  1
  O  O26  1  0.53390000  0.74980200  0.17328600  1
loop_
_geom_bond_atom_site_label_1
_geom_bond_atom_site_label_2
_geom_bond_distance
_geom_bond_site_symmetry_2
Li0 O0 1.903444 1_555
Li0 O2 1.980161 1_555
Li0 O23 2.039266 1_555
Li0 O4 2.076377 1_555
Li1 O1 1.927069 1_555
Li1 O2 1.962570 1_555
Li1 O22 2.035809 1_555
Li1 O3 2.048043 1_555
Li2 O9 1.927069 1_555
Li2 O11 1.962570 1_555
Li2 O18 2.035817 1_655
Li2 O14 2.048043 1_555
Li3 O10 1.903448 1_555
Li3 O11 1.980166 1_555
Li3 O19 2.039258 1_655
Li3 O12 2.076377 1_555
Li4 O17 1.927075 1_555
Li4 O15 1.962570 1_554
Li4 O26 2.035815 1_545
Li4 O7 2.048043 1_555
Li5 O16 1.903443 1_555
Li5 O15 1.980162 1_555
Li5 O24 2.039260 1_545
Li5 O8 2.076384 1_555
Mn0 O17 2.027770 1_455
Mn0 O12 2.152463 1_455
Mn0 O13 2.187699 1_455
Mn0 O22 2.210591 1_555
Mn0 O23 2.293289 1_555
Mn1 O13 1.955665 1_455
Mn1 O21 1.958581 1_554
Mn1 O14 2.026180 1_454
Mn1 O23 2.057734 1_555
Mn1 O15 2.060456 1_454
Mn2 O16 2.008315 1_455
Mn2 O22 2.170859 1_555
Mn2 O12 2.244614 1_455
Mn2 O14 2.249154 1_455
Mn2 O21 2.254529 1_555
Mn3 O0 2.008315 1_565
Mn3 O18 2.170859 1_554
Mn3 O8 2.244607 1_564
Mn3 O7 2.249161 1_565
Mn3 O20 2.254529 1_555
Mn4 O1 2.027770 1_565
Mn4 O8 2.152470 1_565
Mn4 O6 2.187699 1_565
Mn4 O18 2.210591 1_555
Mn4 O19 2.293282 1_555
Mn5 O6 1.955658 1_565
Mn5 O20 1.958587 1_555
Mn5 O7 2.026181 1_565
Mn5 O19 2.057734 1_555
Mn5 O2 2.060456 1_565
Mn6 O5 1.955658 1_555
Mn6 O25 1.958587 1_555
Mn6 O3 2.026180 1_555
Mn6 O24 2.057734 1_555
Mn6 O11 2.060456 1_555
Mn7 O9 2.027770 1_554
Mn7 O4 2.152470 1_555
Mn7 O5 2.187699 1_554
Mn7 O26 2.210593 1_555
Mn7 O24 2.293282 1_554
Mn8 O10 2.008315 1_555
Mn8 O26 2.170847 1_555
Mn8 O4 2.244607 1_555
Mn8 O3 2.249161 1_555
Mn8 O25 2.254529 1_555
B0 O10 1.372747 1_445
B0 O17 1.374820 1_455
B0 O2 1.409080 1_555
B1 O12 1.376056 1_555
B1 O6 1.393699 1_555
B1 O3 1.396018 1_555
B2 O4 1.376056 1_555
B2 O13 1.393699 1_555
B2 O7 1.396018 1_555
B3 O16 1.372754 1_565
B3 O1 1.374814 1_665
B3 O11 1.409079 1_555
B4 O8 1.376056 1_555
B4 O5 1.393699 1_555
B4 O14 1.396017 1_555
B5 O0 1.372747 1_656
B5 O9 1.374815 1_545
B5 O15 1.409087 1_555
B6 O18 1.383159 1_555
B6 O21 1.389299 1_555
B6 O24 1.400987 1_555
B7 O22 1.383159 1_555
B7 O25 1.389297 1_555
B7 O19 1.400994 1_555
B8 O26 1.383159 1_555
B8 O20 1.389305 1_555
B8 O23 1.400989 1_555
