# generated using pymatgen
data_Na5Ni2P2(CO7)2
_symmetry_space_group_name_H-M   'P 1'
_cell_length_a   6.48315776
_cell_length_b   5.04902746
_cell_length_c   8.78337979
_cell_angle_alpha   89.03730431
_cell_angle_beta   90.00000000
_cell_angle_gamma   90.00000000
_symmetry_Int_Tables_number   1
_chemical_formula_structural   Na5Ni2P2(CO7)2
_chemical_formula_sum   'Na5 Ni2 P2 C2 O14'
_cell_volume   287.47142211
_cell_formula_units_Z   1
loop_
 _symmetry_equiv_pos_site_id
 _symmetry_equiv_pos_as_xyz
  1  'x, y, z'
loop_
 _atom_site_type_symbol
 _atom_site_label
 _atom_site_symmetry_multiplicity
 _atom_site_fract_x
 _atom_site_fract_y
 _atom_site_fract_z
 _atom_site_occupancy
  Na  Na0  1  0.26001083  0.24050387  0.25666297  1
  Na  Na1  1  0.73998917  0.24050387  0.25666297  1
  Na  Na2  1  0.75639257  0.75487930  0.73980676  1
  Na  Na3  1  0.24360743  0.75487930  0.73980676  1
  Na  Na4  1  0.00000000  0.22960252  0.92270262  1
  Ni  Ni0  1  0.00000000  0.77797986  0.35095953  1
  Ni  Ni1  1  0.50000000  0.22073124  0.65391344  1
  P  P0  1  0.50000000  0.70838921  0.42146935  1
  P  P1  1  0.00000000  0.29413904  0.58228282  1
  C  C0  1  0.00000000  0.72131666  0.06773356  1
  C  C1  1  0.50000000  0.28234872  0.92536041  1
  O  O0  1  0.50000000  0.29507873  0.06676250  1
  O  O1  1  0.00000000  0.94755013  0.13535299  1
  O  O2  1  0.00000000  0.51036500  0.15245484  1
  O  O3  1  0.30880617  0.77502444  0.32666832  1
  O  O4  1  0.69119383  0.77502444  0.32666832  1
  O  O5  1  0.00000000  0.15475598  0.43034648  1
  O  O6  1  0.50000000  0.40291090  0.45875904  1
  O  O7  1  0.00000000  0.59737437  0.55508276  1
  O  O8  1  0.50000000  0.85402749  0.57316268  1
  O  O9  1  0.81279491  0.21784317  0.68283391  1
  O  O10  1  0.18720509  0.21784317  0.68283391  1
  O  O11  1  0.50000000  0.48338213  0.83131562  1
  O  O12  1  0.50000000  0.05614823  0.85328974  1
  O  O13  1  0.00000000  0.71045124  0.92206369  1
loop_
_geom_bond_atom_site_label_1
_geom_bond_atom_site_label_2
_geom_bond_distance
_geom_bond_site_symmetry_2
Na0 O0 2.294207 1_555
Na0 O5 2.309554 1_555
Na0 O2 2.343913 1_555
Na0 O3 2.439903 1_545
Na0 O1 2.493523 1_545
Na0 O6 2.508590 1_555
Na0 O3 2.795978 1_555
Na1 O0 2.294207 1_555
Na1 O5 2.309554 1_655
Na1 O2 2.343913 1_655
Na1 O4 2.439903 1_545
Na1 O1 2.493523 1_645
Na1 O6 2.508590 1_555
Na1 O4 2.795978 1_555
Na2 O13 2.257265 1_655
Na2 O8 2.265262 1_555
Na2 O11 2.291529 1_555
Na2 O7 2.408862 1_655
Na2 O9 2.410147 1_565
Na2 O12 2.474126 1_565
Na2 O9 2.789625 1_555
Na3 O13 2.257265 1_555
Na3 O8 2.265262 1_555
Na3 O11 2.291529 1_555
Na3 O7 2.408862 1_555
Na3 O10 2.410147 1_565
Na3 O12 2.474126 1_565
Na3 O10 2.789625 1_555
Na4 O1 2.329654 1_546
Na4 O13 2.427731 1_555
Na4 O10 2.433023 1_555
Na4 O9 2.433023 1_455
Na4 O2 2.485554 1_556
Na4 O13 2.621309 1_545
Ni0 O7 1.997762 1_555
Ni0 O4 2.013458 1_455
Ni0 O3 2.013458 1_555
Ni0 O5 2.037088 1_565
Ni0 O1 2.065149 1_555
Ni0 O2 2.223697 1_555
Ni1 O12 1.925702 1_555
Ni1 O6 1.931657 1_555
Ni1 O8 1.993797 1_545
Ni1 O10 2.043768 1_555
Ni1 O9 2.043768 1_555
Ni1 O11 2.063012 1_555
C0 O13 1.281570 1_554
C0 O2 1.289011 1_555
C0 O1 1.296265 1_555
C1 O0 1.244728 1_556
C1 O11 1.297854 1_555
C1 O12 1.315062 1_555
C1 Na4 3.252616 1_555
C1 Na4 3.252616 1_655
O3 P0 1.527607 1_555
O4 P0 1.527607 1_555
O5 P1 1.519128 1_555
O6 P0 1.571369 1_555
O7 P1 1.545600 1_555
O8 P0 1.532603 1_555
O9 P1 1.545958 1_655
O10 P1 1.545958 1_555
