# generated using pymatgen
data_Cu3OF5
_symmetry_space_group_name_H-M   'P 1'
_cell_length_a   7.51255887
_cell_length_b   4.59455407
_cell_length_c   5.91396840
_cell_angle_alpha   93.73918969
_cell_angle_beta   89.23723719
_cell_angle_gamma   89.29177920
_symmetry_Int_Tables_number   1
_chemical_formula_structural   Cu3OF5
_chemical_formula_sum   'Cu6 O2 F10'
_cell_volume   203.66110898
_cell_formula_units_Z   2
loop_
 _symmetry_equiv_pos_site_id
 _symmetry_equiv_pos_as_xyz
  1  'x, y, z'
loop_
 _atom_site_type_symbol
 _atom_site_label
 _atom_site_symmetry_multiplicity
 _atom_site_fract_x
 _atom_site_fract_y
 _atom_site_fract_z
 _atom_site_occupancy
  Cu  Cu0  1  0.00742300  0.98164200  0.99043200  1
  Cu  Cu1  1  0.99285300  0.53031000  0.52435800  1
  Cu  Cu2  1  0.33068800  0.00492900  0.33199600  1
  Cu  Cu3  1  0.67687900  0.51303200  0.19162500  1
  Cu  Cu4  1  0.32449200  0.51095600  0.83584100  1
  Cu  Cu5  1  0.66871500  0.98673300  0.65880200  1
  O  O0  1  0.10651200  0.69617000  0.79949000  1
  O  O1  1  0.77239400  0.69894100  0.47196800  1
  F  F0  1  0.22311100  0.20030000  0.01154400  1
  F  F1  1  0.11374800  0.79888000  0.31417100  1
  F  F2  1  0.44436200  0.70212400  0.14678600  1
  F  F3  1  0.21950200  0.30353300  0.51879700  1
  F  F4  1  0.55113200  0.20802000  0.34697400  1
  F  F5  1  0.44518300  0.79541800  0.65030100  1
  F  F6  1  0.90181500  0.28629500  0.18790700  1
  F  F7  1  0.55599700  0.29716200  0.85343000  1
  F  F8  1  0.88279400  0.19481400  0.68077900  1
  F  F9  1  0.78240000  0.79074200  0.98479900  1
loop_
_geom_bond_atom_site_label_1
_geom_bond_atom_site_label_2
_geom_bond_distance
_geom_bond_site_symmetry_2
Cu0 O0 1.819323 1_555
Cu0 F9 1.913777 1_455
Cu0 F0 1.918266 1_566
Cu0 F6 1.920237 1_466
Cu0 F1 2.289673 1_556
Cu0 F8 2.333754 1_465
Cu1 O1 1.858110 1_555
Cu1 O0 1.961809 1_655
Cu1 F3 1.983970 1_655
Cu1 F1 2.022472 1_655
Cu1 F8 2.027955 1_555
Cu1 F6 2.334113 1_555
Cu2 F3 1.884097 1_555
Cu2 F1 1.895580 1_545
Cu2 F2 1.900415 1_545
Cu2 F4 1.911161 1_555
Cu2 F0 2.301132 1_555
Cu2 F5 2.338603 1_545
Cu3 O1 1.963512 1_555
Cu3 F4 1.969249 1_555
Cu3 F2 1.970098 1_555
Cu3 F6 1.973276 1_555
Cu3 F9 1.988808 1_554
Cu3 F7 2.370783 1_554
Cu4 O0 1.857647 1_555
Cu4 F0 1.973910 1_556
Cu4 F5 1.980950 1_555
Cu4 F7 1.994096 1_555
Cu4 F2 2.194771 1_556
Cu4 F3 2.206996 1_555
Cu5 O1 1.826753 1_555
Cu5 F8 1.882775 1_565
Cu5 F5 1.904782 1_555
Cu5 F7 1.950968 1_565
Cu5 F4 2.341066 1_565
Cu5 F9 2.347022 1_555
F0 F6 2.631697 1_455
F0 F7 2.710368 1_554
F2 F7 2.583950 1_554
F2 F4 2.675847 1_565
F5 F7 2.676452 1_565
F6 F9 2.674720 1_544
F7 F8 2.670804 1_555
F9 O0 2.675688 1_655
