# generated using pymatgen
data_FeOF
_symmetry_space_group_name_H-M   'P 1'
_cell_length_a   3.02474900
_cell_length_b   4.72082400
_cell_length_c   14.01885300
_cell_angle_alpha   90.00000000
_cell_angle_beta   90.00000000
_cell_angle_gamma   90.00000000
_symmetry_Int_Tables_number   1
_chemical_formula_structural   FeOF
_chemical_formula_sum   'Fe6 O6 F6'
_cell_volume   200.17951521
_cell_formula_units_Z   6
loop_
 _symmetry_equiv_pos_site_id
 _symmetry_equiv_pos_as_xyz
  1  'x, y, z'
loop_
 _atom_site_type_symbol
 _atom_site_label
 _atom_site_symmetry_multiplicity
 _atom_site_fract_x
 _atom_site_fract_y
 _atom_site_fract_z
 _atom_site_occupancy
  Fe  Fe0  1  0.50000000  0.78648000  0.99554400  1
  Fe  Fe1  1  0.50000000  0.64322900  0.33376500  1
  Fe  Fe2  1  0.50000000  0.78203600  0.66799000  1
  Fe  Fe3  1  0.00000000  0.21796400  0.16799000  1
  Fe  Fe4  1  0.00000000  0.21352000  0.49554400  1
  Fe  Fe5  1  0.00000000  0.35677100  0.83376500  1
  O  O0  1  0.00000000  0.48581300  0.26976900  1
  O  O1  1  0.00000000  0.60073000  0.93122400  1
  O  O2  1  0.50000000  0.51418700  0.76976900  1
  O  O3  1  0.50000000  0.39927000  0.43122400  1
  O  O4  1  0.50000000  0.04958200  0.56480700  1
  O  O5  1  0.00000000  0.95041800  0.06480700  1
  F  F0  1  0.00000000  0.57115600  0.60487900  1
  F  F1  1  0.50000000  0.42884400  0.10487900  1
  F  F2  1  0.50000000  0.99188000  0.23526600  1
  F  F3  1  0.50000000  0.12408100  0.89615300  1
  F  F4  1  0.00000000  0.87591900  0.39615300  1
  F  F5  1  0.00000000  0.00812000  0.73526600  1
loop_
_geom_bond_atom_site_label_1
_geom_bond_atom_site_label_2
_geom_bond_distance
_geom_bond_site_symmetry_2
Fe0 O5 1.956796 1_556
Fe0 O5 1.956796 1_656
Fe0 O1 1.967045 1_555
Fe0 O1 1.967045 1_655
Fe1 O3 1.786913 1_555
Fe1 O0 1.909032 1_655
Fe1 O0 1.909032 1_555
Fe2 O2 1.906491 1_555
Fe2 O4 1.920325 1_565
Fe3 O0 1.906491 1_555
Fe3 O5 1.920325 1_545
Fe4 O4 1.956796 1_455
Fe4 O4 1.956796 1_555
Fe4 O3 1.967045 1_455
Fe4 O3 1.967045 1_555
Fe5 O1 1.786913 1_555
Fe5 O2 1.909032 1_455
Fe5 O2 1.909032 1_555
F0 Fe2 2.015223 1_455
F0 Fe2 2.015223 1_555
F0 Fe4 2.280309 1_555
F0 O2 2.775420 1_455
F0 O2 2.775420 1_555
F0 O4 2.775603 1_565
F0 O4 2.775603 1_465
F1 Fe3 2.015223 1_555
F1 Fe3 2.015223 1_655
F1 Fe0 2.280309 1_554
F1 O0 2.775420 1_655
F1 O0 2.775420 1_555
F1 O5 2.775603 1_545
F1 O5 2.775603 1_645
F2 Fe3 2.077477 1_565
F2 Fe3 2.077477 1_665
F2 Fe1 2.148437 1_555
F2 F4 2.770202 1_655
F2 F4 2.770202 1_555
F2 O0 2.821062 1_565
F2 O0 2.821062 1_665
F2 O5 2.834778 1_555
F2 O5 2.834778 1_655
F2 O0 2.868590 1_655
F2 O0 2.868590 1_555
F3 Fe5 2.063709 1_555
F3 Fe5 2.063709 1_655
F3 Fe0 2.116949 1_545
F3 O1 2.755412 1_555
F3 O1 2.755412 1_655
F3 F5 2.770202 1_555
F3 F5 2.770202 1_655
F4 Fe1 2.063709 1_555
F4 Fe1 2.063709 1_455
F4 Fe4 2.116949 1_565
F4 O3 2.755412 1_455
F4 O3 2.755412 1_555
F5 Fe2 2.077477 1_545
F5 Fe2 2.077477 1_445
F5 Fe5 2.148437 1_555
F5 O2 2.821062 1_445
F5 O2 2.821062 1_545
F5 O4 2.834778 1_455
F5 O4 2.834778 1_555
F5 O2 2.868590 1_555
F5 O2 2.868590 1_455
