# generated using pymatgen
data_Li4Sn(PO4)2
_symmetry_space_group_name_H-M   'P 1'
_cell_length_a   10.42902500
_cell_length_b   8.27830400
_cell_length_c   9.01881765
_cell_angle_alpha   79.92162637
_cell_angle_beta   90.00000000
_cell_angle_gamma   90.00000000
_symmetry_Int_Tables_number   1
_chemical_formula_structural   Li4Sn(PO4)2
_chemical_formula_sum   'Li16 Sn4 P8 O32'
_cell_volume   766.62146685
_cell_formula_units_Z   4
loop_
 _symmetry_equiv_pos_site_id
 _symmetry_equiv_pos_as_xyz
  1  'x, y, z'
loop_
 _atom_site_type_symbol
 _atom_site_label
 _atom_site_symmetry_multiplicity
 _atom_site_fract_x
 _atom_site_fract_y
 _atom_site_fract_z
 _atom_site_occupancy
  Li  Li0  1  0.65920200  0.10435000  0.40137100  1
  Li  Li1  1  0.16393600  0.14653100  0.35630500  1
  Li  Li2  1  0.34567300  0.15838200  0.82808300  1
  Li  Li3  1  0.42229200  0.23066400  0.52098600  1
  Li  Li4  1  0.92229200  0.26933600  0.47901400  1
  Li  Li5  1  0.84567300  0.34161800  0.17191700  1
  Li  Li6  1  0.66393600  0.35346900  0.64369500  1
  Li  Li7  1  0.15920200  0.39565000  0.59862900  1
  Li  Li8  1  0.84079800  0.60435000  0.40137100  1
  Li  Li9  1  0.33606400  0.64653100  0.35630500  1
  Li  Li10  1  0.15432700  0.65838200  0.82808300  1
  Li  Li11  1  0.07770800  0.73066400  0.52098600  1
  Li  Li12  1  0.57770800  0.76933600  0.47901400  1
  Li  Li13  1  0.65432700  0.84161800  0.17191700  1
  Li  Li14  1  0.83606400  0.85346900  0.64369500  1
  Li  Li15  1  0.34079800  0.89565000  0.59862900  1
  Sn  Sn0  1  0.85324100  0.09406400  0.91349000  1
  Sn  Sn1  1  0.35324100  0.40593600  0.08651000  1
  Sn  Sn2  1  0.64675900  0.59406400  0.91349000  1
  Sn  Sn3  1  0.14675900  0.90593600  0.08651000  1
  P  P0  1  0.40713800  0.01461500  0.24870700  1
  P  P1  1  0.09286200  0.51461500  0.24870700  1
  P  P2  1  0.90713800  0.48538500  0.75129300  1
  P  P3  1  0.59286200  0.98538500  0.75129300  1
  P  P4  1  0.09656400  0.04678900  0.67931100  1
  P  P5  1  0.59656400  0.45321100  0.32068900  1
  P  P6  1  0.40343600  0.54678900  0.67931100  1
  P  P7  1  0.90343600  0.95321100  0.32068900  1
  O  O0  1  0.04875300  0.99128700  0.27512100  1
  O  O1  1  0.34829200  0.08971200  0.37938300  1
  O  O2  1  0.39476500  0.14019700  0.09489400  1
  O  O3  1  0.45287200  0.03565400  0.71283200  1
  O  O4  1  0.84453500  0.11378200  0.35947800  1
  O  O5  1  0.17009800  0.10473800  0.80784300  1
  O  O6  1  0.67338500  0.13946700  0.77612400  1
  O  O7  1  0.09509400  0.18928700  0.54126500  1
  O  O8  1  0.59509400  0.31071300  0.45873500  1
  O  O9  1  0.17338500  0.36053300  0.22387600  1
  O  O10  1  0.67009800  0.39526200  0.19215700  1
  O  O11  1  0.34453500  0.38621800  0.64052200  1
  O  O12  1  0.95287200  0.46434600  0.28716800  1
  O  O13  1  0.89476500  0.35980300  0.90510600  1
  O  O14  1  0.45124700  0.49128700  0.27512100  1
  O  O15  1  0.84829200  0.41028800  0.62061700  1
  O  O16  1  0.15170800  0.58971200  0.37938300  1
  O  O17  1  0.54875300  0.50871300  0.72487900  1
  O  O18  1  0.10523500  0.64019700  0.09489400  1
  O  O19  1  0.04712800  0.53565400  0.71283200  1
  O  O20  1  0.65546500  0.61378200  0.35947800  1
  O  O21  1  0.32990200  0.60473800  0.80784300  1
  O  O22  1  0.82661500  0.63946700  0.77612400  1
  O  O23  1  0.40490600  0.68928700  0.54126500  1
  O  O24  1  0.90490600  0.81071300  0.45873500  1
  O  O25  1  0.32661500  0.86053300  0.22387600  1
  O  O26  1  0.82990200  0.89526200  0.19215700  1
  O  O27  1  0.15546500  0.88621800  0.64052200  1
  O  O28  1  0.54712800  0.96434600  0.28716800  1
  O  O29  1  0.60523500  0.85980300  0.90510600  1
  O  O30  1  0.65170800  0.91028800  0.62061700  1
  O  O31  1  0.95124700  0.00871300  0.72487900  1
loop_
_geom_bond_atom_site_label_1
_geom_bond_atom_site_label_2
_geom_bond_distance
_geom_bond_site_symmetry_2
Li0 O4 1.968350 1_555
Li0 O8 1.985548 1_555
Li0 O28 2.046476 1_545
Li0 O30 2.320572 1_545
Li1 O7 1.905258 1_555
Li1 O9 1.958092 1_555
Li1 O1 1.981640 1_555
Li1 O0 1.989986 1_545
Li2 O5 1.900458 1_555
Li2 O3 1.931867 1_555
Li2 O11 2.302672 1_555
Li2 O2 2.438930 1_556
Li3 O8 1.967712 1_555
Li3 O11 1.990969 1_555
Li3 O1 2.027221 1_555
Li3 O3 2.173460 1_555
Li4 O7 1.967712 1_655
Li4 O4 1.990969 1_555
Li4 O15 2.027221 1_555
Li4 O12 2.173460 1_555
Li5 O10 1.900458 1_555
Li5 O12 1.931867 1_555
Li5 O4 2.302672 1_555
Li5 O13 2.438930 1_554
Li6 O8 1.905258 1_555
Li6 O6 1.958092 1_555
Li6 O15 1.981640 1_555
Li6 O17 1.989986 1_555
Li7 O11 1.968350 1_555
Li7 O7 1.985548 1_555
Li7 O19 2.046476 1_555
Li7 O16 2.320572 1_555
Li8 O20 1.968350 1_555
Li8 O24 1.985548 1_555
Li8 O12 2.046476 1_555
Li8 O15 2.320572 1_555
Li9 O23 1.905258 1_555
Li9 O25 1.958092 1_555
Li9 O16 1.981640 1_555
Li9 O14 1.989986 1_555
Li10 O21 1.900458 1_555
Li10 O19 1.931867 1_555
Li10 O27 2.302672 1_555
Li10 O18 2.438930 1_556
Li11 O24 1.967712 1_455
Li11 O27 1.990969 1_555
Li11 O16 2.027221 1_555
Li11 O19 2.173460 1_555
Li12 O23 1.967712 1_555
Li12 O20 1.990969 1_555
Li12 O30 2.027221 1_555
Li12 O28 2.173460 1_555
Li13 O26 1.900458 1_555
Li13 O28 1.931867 1_555
Li13 O20 2.302672 1_555
Li13 O29 2.438930 1_554
Li14 O24 1.905258 1_555
Li14 O22 1.958092 1_555
Li14 O30 1.981640 1_555
Li14 O31 1.989986 1_565
Li15 O27 1.968350 1_555
Li15 O23 1.985548 1_555
Li15 O3 2.046476 1_565
Li15 O1 2.320572 1_565
O0 P7 1.587355 1_455
O0 Sn3 2.204121 1_555
O1 P0 1.551937 1_555
O2 P0 1.586521 1_555
O2 Sn1 2.230349 1_555
O3 P3 1.540927 1_545
O4 P7 1.558651 1_545
O5 P4 1.535134 1_555
O5 Sn3 2.763424 1_546
O6 P3 1.575547 1_545
O6 Sn0 2.243091 1_555
O7 P4 1.558148 1_555
O8 P5 1.558148 1_555
O9 P1 1.575547 1_555
O9 Sn1 2.243091 1_555
O10 P5 1.535134 1_555
O10 Sn2 2.763424 1_554
O11 P6 1.558651 1_555
O12 P1 1.540927 1_655
O13 P2 1.586521 1_555
O13 Sn0 2.230349 1_555
O14 P5 1.587355 1_555
O14 Sn1 2.204121 1_555
O15 P2 1.551937 1_555
O16 P1 1.551937 1_555
O17 P6 1.587355 1_555
O17 Sn2 2.204121 1_555
O18 P1 1.586521 1_555
O18 Sn3 2.230349 1_555
O19 P2 1.540927 1_455
O20 P5 1.558651 1_555
O21 P6 1.535134 1_555
O21 Sn1 2.763424 1_556
O22 P2 1.575547 1_555
O22 Sn2 2.243091 1_555
O23 P6 1.558148 1_555
O24 P7 1.558148 1_555
O25 P0 1.575547 1_565
O25 Sn3 2.243091 1_555
O26 P7 1.535134 1_555
O26 Sn0 2.763424 1_564
O27 P4 1.558651 1_565
O28 P0 1.540927 1_565
O29 P3 1.586521 1_555
O29 Sn2 2.230349 1_555
O30 P3 1.551937 1_555
O31 P4 1.587355 1_655
O31 Sn0 2.204121 1_555
