# generated using pymatgen
data_LiMn2(BO3)2
_symmetry_space_group_name_H-M   'P 1'
_cell_length_a   5.79107200
_cell_length_b   9.17793304
_cell_length_c   9.81469890
_cell_angle_alpha   81.23680373
_cell_angle_beta   79.84416527
_cell_angle_gamma   75.86057995
_symmetry_Int_Tables_number   1
_chemical_formula_structural   LiMn2(BO3)2
_chemical_formula_sum   'Li4 Mn8 B8 O24'
_cell_volume   494.64846523
_cell_formula_units_Z   4
loop_
 _symmetry_equiv_pos_site_id
 _symmetry_equiv_pos_as_xyz
  1  'x, y, z'
loop_
 _atom_site_type_symbol
 _atom_site_label
 _atom_site_symmetry_multiplicity
 _atom_site_fract_x
 _atom_site_fract_y
 _atom_site_fract_z
 _atom_site_occupancy
  Li  Li0  1  0.04579100  0.80576600  0.62401700  1
  Li  Li1  1  0.53169900  0.80500700  0.12561400  1
  Li  Li2  1  0.96022200  0.19126400  0.36383200  1
  Li  Li3  1  0.79036100  0.30495100  0.88306800  1
  Mn  Mn0  1  0.14847900  0.39423800  0.10810900  1
  Mn  Mn1  1  0.12164700  0.12722600  0.62694100  1
  Mn  Mn2  1  0.60290600  0.11794900  0.14382000  1
  Mn  Mn3  1  0.36664600  0.58923400  0.37926200  1
  Mn  Mn4  1  0.62624200  0.38720400  0.61999900  1
  Mn  Mn5  1  0.38236000  0.89531200  0.86048600  1
  Mn  Mn6  1  0.89011700  0.86086800  0.35730400  1
  Mn  Mn7  1  0.85914500  0.62496200  0.88491200  1
  B  B0  1  0.13886300  0.04533200  0.12062600  1
  B  B1  1  0.09915800  0.46226700  0.64430200  1
  B  B2  1  0.61666700  0.46108900  0.13067000  1
  B  B3  1  0.35409100  0.94148900  0.38648100  1
  B  B4  1  0.65535600  0.04787000  0.60293000  1
  B  B5  1  0.39456100  0.55056100  0.86688900  1
  B  B6  1  0.89068000  0.52582100  0.36081200  1
  B  B7  1  0.85674300  0.96425600  0.89018600  1
  O  O0  1  0.26948300  0.15837500  0.10291600  1
  O  O1  1  0.03432700  0.63244100  0.33659800  1
  O  O2  1  0.26486200  0.07916700  0.43716000  1
  O  O3  1  0.02031100  0.60005200  0.69358600  1
  O  O4  1  0.22474900  0.91434100  0.06579000  1
  O  O5  1  0.29469400  0.44026100  0.53888800  1
  O  O6  1  0.04521300  0.94499900  0.77706100  1
  O  O7  1  0.49722300  0.34528800  0.16805800  1
  O  O8  1  0.24545100  0.82103500  0.42886600  1
  O  O9  1  0.43484500  0.07696400  0.69301600  1
  O  O10  1  0.16900100  0.58286700  0.95072000  1
  O  O11  1  0.53771600  0.59612800  0.18734700  1
  O  O12  1  0.48422500  0.41420800  0.82067800  1
  O  O13  1  0.81281600  0.44184100  0.02370300  1
  O  O14  1  0.55056500  0.92807500  0.27717200  1
  O  O15  1  0.78668700  0.16452400  0.57248500  1
  O  O16  1  0.52648000  0.66303900  0.84628200  1
  O  O17  1  0.91883300  0.07203600  0.21540500  1
  O  O18  1  0.67132500  0.56188300  0.44955900  1
  O  O19  1  0.78560200  0.09773500  0.94803800  1
  O  O20  1  0.95980500  0.39375100  0.30602900  1
  O  O21  1  0.74527200  0.91384200  0.55432000  1
  O  O22  1  0.98650800  0.34164400  0.69155900  1
  O  O23  1  0.73757000  0.84684400  0.93623900  1
loop_
_geom_bond_atom_site_label_1
_geom_bond_atom_site_label_2
_geom_bond_distance
_geom_bond_site_symmetry_2
Li0 O3 1.939179 1_555
Li0 O21 1.962207 1_455
Li0 O8 2.059488 1_555
Li0 O6 2.114288 1_555
Li1 O11 1.914259 1_555
Li1 O4 1.956659 1_555
Li1 O14 2.032220 1_555
Li1 O23 2.061109 1_554
Li2 O20 1.858115 1_555
Li2 O2 2.006036 1_655
Li2 O17 2.028309 1_555
Li2 O15 2.122620 1_555
Li3 O19 1.916811 1_555
Li3 O12 1.962318 1_555
Li3 O13 2.042569 1_556
Li3 O22 2.043938 1_555
Mn0 O20 2.053900 1_455
Mn0 O0 2.111782 1_555
Mn0 O7 2.126509 1_555
Mn0 O10 2.149038 1_554
Mn0 O13 2.167576 1_455
Mn1 O9 1.959063 1_555
Mn1 O2 1.969435 1_555
Mn1 O15 2.037406 1_455
Mn1 O22 2.083312 1_455
Mn1 O6 2.131848 1_545
Mn2 O0 1.976129 1_555
Mn2 O17 2.001226 1_555
Mn2 O19 2.035166 1_554
Mn2 O7 2.064137 1_555
Mn2 O14 2.065162 1_545
Mn3 O18 1.952522 1_555
Mn3 O11 1.967130 1_555
Mn3 O5 1.973058 1_555
Mn3 O1 1.974073 1_555
Mn3 O8 2.172848 1_555
Mn4 O12 2.023626 1_555
Mn4 O15 2.113649 1_555
Mn4 O5 2.126371 1_555
Mn4 O18 2.161022 1_555
Mn4 O22 2.240965 1_555
Mn5 O4 2.074745 1_556
Mn5 O16 2.107317 1_555
Mn5 O6 2.169194 1_555
Mn5 O9 2.193163 1_565
Mn5 O23 2.230160 1_555
Mn6 O21 2.047979 1_555
Mn6 O1 2.085323 1_655
Mn6 O14 2.161156 1_555
Mn6 O8 2.219293 1_655
Mn6 O17 2.230870 1_565
Mn7 O10 1.944294 1_655
Mn7 O3 1.964185 1_655
Mn7 O16 1.966091 1_555
Mn7 O13 2.036183 1_556
Mn7 O23 2.093679 1_555
B0 O4 1.339030 1_545
B0 O0 1.400327 1_555
B0 O17 1.431046 1_455
B1 O3 1.366755 1_555
B1 O5 1.390048 1_555
B1 O22 1.398568 1_455
B2 O7 1.376050 1_555
B2 O11 1.377703 1_555
B2 O13 1.400575 1_555
B3 O2 1.375851 1_565
B3 O8 1.377835 1_555
B3 O14 1.414937 1_555
B4 O21 1.337975 1_545
B4 O9 1.411007 1_555
B4 O15 1.426253 1_555
B5 O12 1.346790 1_555
B5 O16 1.399071 1_555
B5 O10 1.406138 1_555
B6 O20 1.343213 1_555
B6 O1 1.401134 1_655
B6 O18 1.405036 1_555
B7 O19 1.369589 1_565
B7 O23 1.395256 1_555
B7 O6 1.411886 1_655
