# generated using pymatgen
data_Li3V2(OF)4
_symmetry_space_group_name_H-M   'P 1'
_cell_length_a   4.98778300
_cell_length_b   7.34560108
_cell_length_c   7.75682757
_cell_angle_alpha   101.71228812
_cell_angle_beta   90.10823440
_cell_angle_gamma   90.11610326
_symmetry_Int_Tables_number   1
_chemical_formula_structural   Li3V2(OF)4
_chemical_formula_sum   'Li6 V4 O8 F8'
_cell_volume   278.27818328
_cell_formula_units_Z   2
loop_
 _symmetry_equiv_pos_site_id
 _symmetry_equiv_pos_as_xyz
  1  'x, y, z'
loop_
 _atom_site_type_symbol
 _atom_site_label
 _atom_site_symmetry_multiplicity
 _atom_site_fract_x
 _atom_site_fract_y
 _atom_site_fract_z
 _atom_site_occupancy
  Li  Li0  1  0.73810700  0.96858500  0.08747900  1
  Li  Li1  1  0.75704500  0.63998500  0.37169300  1
  Li  Li2  1  0.76637700  0.17632700  0.39725300  1
  Li  Li3  1  0.25391400  0.85913900  0.63488600  1
  Li  Li4  1  0.26733000  0.32246700  0.60517900  1
  Li  Li5  1  0.23447200  0.53224400  0.90941100  1
  V  V0  1  0.23408700  0.83173000  0.17478200  1
  V  V1  1  0.26094400  0.32675600  0.16703800  1
  V  V2  1  0.72610200  0.67194700  0.83809000  1
  V  V3  1  0.76739000  0.17754900  0.84387100  1
  O  O0  1  0.93453600  0.70092500  0.03088600  1
  O  O1  1  0.55857800  0.19186500  0.03119900  1
  O  O2  1  0.36972500  0.55181200  0.17444100  1
  O  O3  1  0.10276700  0.05056300  0.18755400  1
  O  O4  1  0.87506700  0.95213600  0.82583700  1
  O  O5  1  0.60329900  0.44985000  0.81175600  1
  O  O6  1  0.44648100  0.79078500  0.95384000  1
  O  O7  1  0.04848700  0.30322100  0.95314900  1
  F  F0  1  0.57466400  0.91050600  0.29513600  1
  F  F1  1  0.94213000  0.39525900  0.31301800  1
  F  F2  1  0.08427700  0.79767100  0.39881500  1
  F  F3  1  0.43510300  0.29757100  0.38713300  1
  F  F4  1  0.59025400  0.70246700  0.60735000  1
  F  F5  1  0.93186700  0.20194700  0.61463200  1
  F  F6  1  0.06506000  0.59084100  0.70177800  1
  F  F7  1  0.45392600  0.10585500  0.68380000  1
loop_
_geom_bond_atom_site_label_1
_geom_bond_atom_site_label_2
_geom_bond_distance
_geom_bond_site_symmetry_2
Li0 O1 1.994391 1_565
Li0 O3 2.018377 1_665
Li0 O6 2.081595 1_554
Li0 O4 2.122780 1_554
Li0 O0 2.162699 1_555
Li1 O2 2.464566 1_555
Li2 O3 2.391844 1_655
Li3 O4 2.415813 1_455
Li4 O5 2.371929 1_555
Li4 Li5 2.548819 1_555
Li5 O7 2.008084 1_555
Li5 O5 2.036660 1_555
Li5 O0 2.049397 1_456
Li5 O6 2.137398 1_555
Li5 O2 2.139262 1_556
O0 V2 1.796272 1_554
O0 V0 1.988429 1_655
O1 V3 1.775201 1_554
O1 V1 1.970754 1_555
O2 V1 1.728690 1_555
O2 V0 2.165400 1_555
O3 V0 1.721226 1_545
O3 V1 2.211082 1_555
O4 V3 1.720324 1_565
O4 V2 2.206941 1_555
O5 V2 1.714253 1_555
O5 V3 2.222822 1_555
O6 V2 1.790188 1_555
O6 V0 1.987148 1_556
O7 V3 1.791372 1_455
O7 V1 1.944636 1_556
F0 Li0 1.929685 1_555
F0 V0 1.965389 1_555
F0 Li2 2.171664 1_565
F0 Li1 2.369231 1_555
F1 V1 1.960300 1_655
F1 Li1 1.991757 1_555
F1 Li2 2.050540 1_555
F2 V0 1.954863 1_555
F2 Li3 1.982385 1_555
F2 Li1 1.985441 1_455
F2 O2 2.657331 1_555
F3 Li4 1.864066 1_555
F3 Li2 1.887691 1_555
F3 V1 1.964422 1_555
F4 V2 1.967673 1_555
F4 Li1 1.977579 1_555
F4 Li3 2.023306 1_555
F4 O4 2.640491 1_555
F4 F6 2.657536 1_655
F5 Li2 1.850730 1_555
F5 Li4 1.899891 1_655
F5 V3 2.000328 1_555
F5 F7 2.573066 1_555
F6 Li5 1.941909 1_555
F6 V2 2.021462 1_455
F6 Li4 2.208344 1_555
F6 Li3 2.334545 1_555
F7 V3 1.996842 1_555
F7 Li3 2.033623 1_545
F7 Li4 2.041490 1_555
