# generated using pymatgen
data_LiNi4P7O24
_symmetry_space_group_name_H-M   'P 1'
_cell_length_a   10.30450700
_cell_length_b   10.38173180
_cell_length_c   10.64801090
_cell_angle_alpha   111.38196518
_cell_angle_beta   107.71881906
_cell_angle_gamma   105.03994795
_symmetry_Int_Tables_number   1
_chemical_formula_structural   LiNi4P7O24
_chemical_formula_sum   'Li2 Ni8 P14 O48'
_cell_volume   918.04714199
_cell_formula_units_Z   2
loop_
 _symmetry_equiv_pos_site_id
 _symmetry_equiv_pos_as_xyz
  1  'x, y, z'
loop_
 _atom_site_type_symbol
 _atom_site_label
 _atom_site_symmetry_multiplicity
 _atom_site_fract_x
 _atom_site_fract_y
 _atom_site_fract_z
 _atom_site_occupancy
  Li  Li0  1  0.15097200  0.54435400  0.57762900  1
  Li  Li1  1  0.84902800  0.45564600  0.42237100  1
  Ni  Ni0  1  0.89861600  0.50288400  0.74388500  1
  Ni  Ni1  1  0.38088100  0.00062200  0.07682000  1
  Ni  Ni2  1  0.10138400  0.49711600  0.25611500  1
  Ni  Ni3  1  0.33817800  0.49279100  0.11982600  1
  Ni  Ni4  1  0.17044900  0.01892200  0.58085800  1
  Ni  Ni5  1  0.66182200  0.50720900  0.88017400  1
  Ni  Ni6  1  0.61911900  0.99937800  0.92318000  1
  Ni  Ni7  1  0.82955100  0.98107800  0.41914200  1
  P  P0  1  0.05793100  0.79689800  0.73540900  1
  P  P1  1  0.81869500  0.26712300  0.87725500  1
  P  P2  1  0.04116600  0.26620300  0.75161400  1
  P  P3  1  0.37371800  0.80402800  0.56694300  1
  P  P4  1  0.61232600  0.74476300  0.47970200  1
  P  P5  1  0.62628200  0.19597200  0.43305700  1
  P  P6  1  0.18130500  0.73287700  0.12274500  1
  P  P7  1  0.95883400  0.73379700  0.24838600  1
  P  P8  1  0.54097100  0.75600400  0.05242700  1
  P  P9  1  0.22259400  0.23721000  0.22567700  1
  P  P10  1  0.45902900  0.24399600  0.94757300  1
  P  P11  1  0.77740600  0.76279000  0.77432300  1
  P  P12  1  0.38767400  0.25523700  0.52029800  1
  P  P13  1  0.94206900  0.20310200  0.26459100  1
  O  O0  1  0.34060900  0.31535900  0.39961700  1
  O  O1  1  0.09371200  0.80217800  0.21284500  1
  O  O2  1  0.08682000  0.86872000  0.64142000  1
  O  O3  1  0.68188600  0.13050100  0.83146000  1
  O  O4  1  0.26367900  0.63540100  0.47638500  1
  O  O5  1  0.75563600  0.85699300  0.50630100  1
  O  O6  1  0.43815400  0.34995800  0.07781600  1
  O  O7  1  0.06078500  0.15183300  0.21201900  1
  O  O8  1  0.92259200  0.35060400  0.04596100  1
  O  O9  1  0.01688900  0.38016400  0.69693600  1
  O  O10  1  0.56714400  0.15375100  0.26652200  1
  O  O11  1  0.18474900  0.34991600  0.89674400  1
  O  O12  1  0.73632100  0.36459900  0.52361500  1
  O  O13  1  0.78550200  0.38093700  0.82448700  1
  O  O14  1  0.51169300  0.88220200  0.01977000  1
  O  O15  1  0.31811400  0.86949900  0.16854000  1
  O  O16  1  0.97003200  0.87414700  0.37445600  1
  O  O17  1  0.81525100  0.65008400  0.10325600  1
  O  O18  1  0.21811600  0.37001400  0.19750700  1
  O  O19  1  0.48464600  0.39324600  0.67094900  1
  O  O20  1  0.48588500  0.16695300  0.47240700  1
  O  O21  1  0.65939100  0.68464100  0.60038300  1
  O  O22  1  0.91318000  0.13128000  0.35858000  1
  O  O23  1  0.74269300  0.87775500  0.87491800  1
  O  O24  1  0.51411500  0.83304700  0.52759300  1
  O  O25  1  0.07740800  0.64939600  0.95403900  1
  O  O26  1  0.78188400  0.62998600  0.80249300  1
  O  O27  1  0.32836400  0.16843400  0.79262100  1
  O  O28  1  0.69085100  0.08847200  0.46375400  1
  O  O29  1  0.51535400  0.60675400  0.32905100  1
  O  O30  1  0.67163600  0.83156600  0.20737900  1
  O  O31  1  0.98311100  0.61983600  0.30306400  1
  O  O32  1  0.59802100  0.36004900  0.96010800  1
  O  O33  1  0.98997500  0.62071200  0.64365000  1
  O  O34  1  0.01002500  0.37928800  0.35635000  1
  O  O35  1  0.20135800  0.85347300  0.87560100  1
  O  O36  1  0.02996800  0.12585300  0.62554400  1
  O  O37  1  0.21449800  0.61906300  0.17551300  1
  O  O38  1  0.93921500  0.84816700  0.78798100  1
  O  O39  1  0.25730700  0.12224500  0.12508200  1
  O  O40  1  0.40197900  0.63995100  0.03989200  1
  O  O41  1  0.56184600  0.65004200  0.92218400  1
  O  O42  1  0.48830700  0.11779800  0.98023000  1
  O  O43  1  0.79864200  0.14652700  0.12439900  1
  O  O44  1  0.24436400  0.14300700  0.49369900  1
  O  O45  1  0.90628800  0.19782200  0.78715500  1
  O  O46  1  0.30914900  0.91152800  0.53624600  1
  O  O47  1  0.43285600  0.84624900  0.73347800  1
loop_
_geom_bond_atom_site_label_1
_geom_bond_atom_site_label_2
_geom_bond_distance
_geom_bond_site_symmetry_2
Li0 O34 2.068528 1_555
Li0 O4 2.083232 1_555
Li0 O33 2.204757 1_455
Li0 O9 2.802416 1_555
Li1 O33 2.068528 1_555
Li1 O12 2.083232 1_555
Li1 O34 2.204757 1_655
Li1 O31 2.802416 1_555
Ni0 O9 2.017606 1_655
Ni0 O26 2.063429 1_555
Ni0 O25 2.066306 1_655
Ni0 O12 2.066423 1_555
Ni0 O13 2.081670 1_555
Ni0 O33 2.118415 1_555
Ni1 O10 2.001604 1_555
Ni1 O35 2.020053 1_544
Ni1 O15 2.030320 1_545
Ni1 O39 2.058999 1_555
Ni1 O14 2.123992 1_545
Ni1 O42 2.160892 1_554
Ni2 O31 2.017606 1_455
Ni2 O18 2.063429 1_555
Ni2 O8 2.066306 1_455
Ni2 O4 2.066423 1_555
Ni2 O37 2.081670 1_555
Ni2 O34 2.118415 1_555
Ni3 O6 2.012445 1_555
Ni3 O29 2.043889 1_555
Ni3 O40 2.063555 1_555
Ni3 O11 2.066404 1_554
Ni3 O18 2.100652 1_555
Ni3 O37 2.110601 1_555
Ni4 O44 1.973259 1_555
Ni4 O2 1.991019 1_545
Ni4 O27 2.011284 1_555
Ni4 O46 2.089384 1_545
Ni4 O36 2.102953 1_555
Ni4 O16 2.138213 1_445
Ni5 O41 2.012445 1_555
Ni5 O19 2.043889 1_555
Ni5 O32 2.063555 1_555
Ni5 O17 2.066404 1_556
Ni5 O26 2.100652 1_555
Ni5 O13 2.110601 1_555
Ni6 O47 2.001604 1_555
Ni6 O43 2.020053 1_566
Ni6 O3 2.030320 1_565
Ni6 O23 2.058999 1_555
Ni6 O42 2.123992 1_565
Ni6 O14 2.160892 1_556
Ni7 O5 1.973259 1_555
Ni7 O22 1.991019 1_565
Ni7 O30 2.011284 1_555
Ni7 O28 2.089384 1_565
Ni7 O16 2.102953 1_555
Ni7 O36 2.138213 1_665
O0 P9 1.608950 1_555
O0 P12 1.624394 1_555
O1 P7 1.607130 1_455
O1 P6 1.616649 1_555
O2 P0 1.502151 1_555
O3 P1 1.508796 1_555
O4 P3 1.534157 1_555
O5 P4 1.493435 1_555
O6 P10 1.540028 1_554
O7 P9 1.605706 1_555
O7 P13 1.621926 1_455
O8 P1 1.528690 1_554
O9 P2 1.539001 1_555
O10 P5 1.531279 1_555
O11 P2 1.514633 1_555
O12 P5 1.534157 1_555
O13 P1 1.551032 1_555
O14 P8 1.549812 1_555
O15 P6 1.508796 1_555
O16 P7 1.526642 1_555
O17 P7 1.514633 1_555
O18 P9 1.522879 1_555
O19 P12 1.493309 1_555
O20 P12 1.605920 1_555
O20 P5 1.610635 1_555
O21 P11 1.608950 1_555
O21 P4 1.624394 1_555
O22 P13 1.502151 1_555
O23 P11 1.490772 1_555
O24 P4 1.605920 1_555
O24 P3 1.610635 1_555
O25 P6 1.528690 1_556
O26 P11 1.522879 1_555
O27 P10 1.518679 1_555
O28 P5 1.521203 1_555
O29 P4 1.493309 1_555
O30 P8 1.518679 1_555
O31 P7 1.539001 1_555
O32 P10 1.546470 1_555
O33 P0 1.551235 1_655
O34 P13 1.551235 1_455
O35 P0 1.524765 1_555
O36 P2 1.526642 1_555
O37 P6 1.551032 1_555
O38 P11 1.605706 1_555
O38 P0 1.621926 1_655
O39 P9 1.490772 1_555
O40 P8 1.546470 1_555
O41 P8 1.540028 1_556
O42 P10 1.549812 1_555
O43 P13 1.524765 1_555
O44 P12 1.493435 1_555
O45 P2 1.607130 1_655
O45 P1 1.616649 1_555
O46 P3 1.521203 1_555
O47 P3 1.531279 1_555
