# generated using pymatgen
data_Na3Zr3Fe(PO4)6
_symmetry_space_group_name_H-M   'P 1'
_cell_length_a   8.87871800
_cell_length_b   9.25113621
_cell_length_c   15.43878501
_cell_angle_alpha   106.00726030
_cell_angle_beta   90.07364796
_cell_angle_gamma   118.57896973
_symmetry_Int_Tables_number   1
_chemical_formula_structural   Na3Zr3Fe(PO4)6
_chemical_formula_sum   'Na6 Zr6 Fe2 P12 O48'
_cell_volume   1057.01632542
_cell_formula_units_Z   2
loop_
 _symmetry_equiv_pos_site_id
 _symmetry_equiv_pos_as_xyz
  1  'x, y, z'
loop_
 _atom_site_type_symbol
 _atom_site_label
 _atom_site_symmetry_multiplicity
 _atom_site_fract_x
 _atom_site_fract_y
 _atom_site_fract_z
 _atom_site_occupancy
  Na  Na0  1  0.96526500  0.98272800  0.01162000  1
  Na  Na1  1  0.51257500  0.02896900  0.48984000  1
  Na  Na2  1  0.25036800  0.00035100  0.24987200  1
  Na  Na3  1  0.74689100  0.99210400  0.75071500  1
  Na  Na4  1  0.44889400  0.18516400  0.81957000  1
  Na  Na5  1  0.27962900  0.55789900  0.63430900  1
  Zr  Zr0  1  0.08029100  0.29863300  0.06921100  1
  Zr  Zr1  1  0.17807100  0.70904500  0.17591500  1
  Zr  Zr2  1  0.56877800  0.28672800  0.57574800  1
  Zr  Zr3  1  0.32236800  0.29103900  0.32417500  1
  Zr  Zr4  1  0.42509500  0.70558000  0.42683400  1
  Zr  Zr5  1  0.92290500  0.70393400  0.92561700  1
  Fe  Fe0  1  0.68109400  0.71087100  0.67637900  1
  Fe  Fe1  1  0.82293700  0.29447200  0.82890200  1
  P  P0  1  0.81156600  0.79211900  0.22909100  1
  P  P1  1  0.08242300  0.49961600  0.37505100  1
  P  P2  1  0.73123300  0.20953700  0.01794300  1
  P  P3  1  0.76846100  0.78695400  0.48363900  1
  P  P4  1  0.41599400  0.49886100  0.12508600  1
  P  P5  1  0.31175000  0.78292400  0.73058600  1
  P  P6  1  0.69092300  0.20936000  0.26933100  1
  P  P7  1  0.58818700  0.50077200  0.87053600  1
  P  P8  1  0.21937900  0.20089900  0.52378400  1
  P  P9  1  0.28037400  0.80120400  0.97617200  1
  P  P10  1  0.91228200  0.50386000  0.62816100  1
  P  P11  1  0.19162900  0.21925100  0.76966300  1
  O  O0  1  0.86940200  0.40425700  0.25390500  1
  O  O1  1  0.22067300  0.79131100  0.06059600  1
  O  O2  1  0.92359300  0.98404800  0.14088300  1
  O  O3  1  0.36844400  0.63113400  0.14069800  1
  O  O4  1  0.00042500  0.80114000  0.21756900  1
  O  O5  1  0.69506000  0.78988500  0.31140100  1
  O  O6  1  0.82198200  0.34677400  0.45904200  1
  O  O7  1  0.14386000  0.65366600  0.29100300  1
  O  O8  1  0.47549500  0.01815300  0.10665800  1
  O  O9  1  0.72303600  0.59316600  0.49715400  1
  O  O10  1  0.60717700  0.79056900  0.47168400  1
  O  O11  1  0.26968600  0.37039700  0.10806500  1
  O  O12  1  0.22910200  0.62955200  0.39191100  1
  O  O13  1  0.37938600  0.40547500  0.75476800  1
  O  O14  1  0.88640800  0.20045300  0.03096500  1
  O  O15  1  0.77879200  0.40502900  0.00294900  1
  O  O16  1  0.02298600  0.98046500  0.39459800  1
  O  O17  1  0.70143800  0.77779400  0.56787600  1
  O  O18  1  0.35500700  0.34551900  0.20912000  1
  O  O19  1  0.42226200  0.97812000  0.64294900  1
  O  O20  1  0.67716100  0.65192300  0.04101600  1
  O  O21  1  0.86498900  0.63713100  0.64037800  1
  O  O22  1  0.49887900  0.79029500  0.71842100  1
  O  O23  1  0.80756000  0.21170200  0.18735800  1
  O  O24  1  0.19775500  0.78727300  0.81160600  1
  O  O25  1  0.50122000  0.20008000  0.28163900  1
  O  O26  1  0.13314100  0.37017100  0.35868200  1
  O  O27  1  0.32713600  0.34911600  0.95652200  1
  O  O28  1  0.57741200  0.01717200  0.35831300  1
  O  O29  1  0.64760900  0.65302700  0.78746200  1
  O  O30  1  0.27934200  0.21130000  0.43894000  1
  O  O31  1  0.96416700  0.01110100  0.61033800  1
  O  O32  1  0.22760600  0.60270500  0.99330700  1
  O  O33  1  0.12709500  0.81452900  0.96181900  1
  O  O34  1  0.63195100  0.59625200  0.24557400  1
  O  O35  1  0.76595000  0.36965000  0.61161300  1
  O  O36  1  0.73409100  0.62953600  0.88849400  1
  O  O37  1  0.38071900  0.19697100  0.53420400  1
  O  O38  1  0.27339400  0.40129400  0.50617700  1
  O  O39  1  0.53509600  0.99623400  0.88781100  1
  O  O40  1  0.84862400  0.34900400  0.71350600  1
  O  O41  1  0.17638800  0.64961900  0.54591700  1
  O  O42  1  0.30248300  0.21577300  0.68797700  1
  O  O43  1  0.01167400  0.22111400  0.77727400  1
  O  O44  1  0.62990200  0.36209900  0.85881500  1
  O  O45  1  0.07891800  0.02140300  0.85704400  1
  O  O46  1  0.78201100  0.21032200  0.93648800  1
  O  O47  1  0.12723900  0.59003600  0.74617000  1
loop_
_geom_bond_atom_site_label_1
_geom_bond_atom_site_label_2
_geom_bond_distance
_geom_bond_site_symmetry_2
Na0 O2 2.027930 1_555
Na0 O14 2.377903 1_565
Na0 Zr5 2.395511 1_554
Na0 Zr0 2.466469 1_665
Na0 O33 2.561050 1_654
Na0 O45 2.640678 1_664
Na0 O20 3.065001 1_555
Na1 O28 2.099429 1_555
Na1 Zr2 2.193135 1_555
Na1 O37 2.326163 1_555
Na1 Zr4 2.582584 1_545
Na1 O19 2.590204 1_545
Na1 O10 2.660858 1_545
Na1 O6 3.076330 1_555
Na2 O4 2.036477 1_545
Na2 O25 2.043363 1_555
Na2 Zr3 2.368199 1_555
Na2 Zr1 2.371567 1_545
Na2 O8 2.967906 1_555
Na2 O16 2.997519 1_545
Na3 O22 2.033129 1_555
Na3 O43 2.221865 1_665
Na3 O39 2.837599 1_555
Na3 O17 2.864762 1_555
Na3 O31 2.888920 1_565
Na3 O45 3.230560 1_665
Na3 O19 3.256485 1_555
Na4 O44 1.600916 1_555
Na4 O39 2.654050 1_545
Na4 O27 2.783107 1_555
Na4 O19 2.800829 1_545
Na4 O45 3.024490 1_555
Na5 P5 2.085350 1_555
Na5 O38 2.087498 1_555
Na5 O22 2.132513 1_555
Na5 O41 2.191365 1_555
Na5 O47 2.238144 1_555
Fe0 O29 1.916029 1_555
Fe0 O17 1.920376 1_555
Fe0 O21 2.073411 1_555
Fe0 O22 2.110815 1_555
Fe0 Na3 2.307535 1_555
Fe1 O40 1.966515 1_555
Fe1 O46 1.985206 1_555
Fe1 O44 2.100170 1_555
Fe1 O43 2.167288 1_655
Fe1 Na3 2.462982 1_545
O0 O23 1.607375 1_555
O0 P6 1.822903 1_555
O0 O7 2.340550 1_655
O1 P9 1.417520 1_554
O1 O32 1.797399 1_554
O1 O33 1.846674 1_554
O1 Zr1 2.089415 1_555
O1 O8 2.158412 1_565
O2 P0 2.375691 1_555
O2 O4 2.633907 1_655
O2 O23 2.693697 1_565
O2 O20 2.748049 1_555
O3 P4 1.437212 1_555
O3 Zr1 2.150335 1_555
O4 P0 1.650885 1_455
O4 Zr1 2.147863 1_555
O5 P0 1.637900 1_555
O6 P10 2.521742 1_555
O6 P1 2.630329 1_655
O6 O9 2.737003 1_555
O6 Zr2 2.824315 1_555
O6 P6 2.840964 1_555
O7 Zr1 1.966308 1_555
O7 P1 2.071302 1_555
O8 P9 2.349966 1_544
O8 P6 2.719462 1_555
O8 P2 2.768678 1_555
O9 P3 1.713167 1_555
O10 P3 1.460937 1_555
O10 Zr4 1.480533 1_555
O10 O17 1.762985 1_555
O11 P4 1.232383 1_555
O11 Zr0 1.529046 1_555
O11 O18 1.850070 1_555
O11 O27 2.370225 1_554
O12 P1 1.239983 1_555
O12 Zr4 1.559175 1_555
O12 O7 1.843852 1_555
O12 O41 2.397783 1_555
O13 O42 1.569424 1_555
O13 P11 1.808775 1_555
O13 O29 2.304853 1_555
O14 P2 1.437035 1_555
O14 Zr0 1.530574 1_655
O14 O46 1.773691 1_554
O15 P2 1.732963 1_555
O15 O46 1.824332 1_554
O15 O44 2.420695 1_554
O15 O20 2.758517 1_555
O16 O30 2.179227 1_565
O16 P8 2.350086 1_565
O16 O5 2.658130 1_455
O16 O4 2.728037 1_555
O16 P0 2.737106 1_455
O16 P3 2.774201 1_455
O17 P3 1.437765 1_555
O17 O9 1.852465 1_555
O17 O31 2.220013 1_565
O18 Zr3 1.961788 1_555
O18 P4 2.066576 1_555
O18 O34 2.358593 1_555
O19 P5 2.389554 1_555
O19 O22 2.661793 1_555
O19 O41 2.716411 1_555
O19 O42 2.800694 1_565
O19 Zr2 3.000560 1_565
O20 O36 2.382752 1_554
O20 P7 2.532747 1_554
O20 P4 2.635642 1_555
O20 Zr5 2.764904 1_554
O20 P0 2.823245 1_555
O20 O27 2.975271 1_554
O20 O3 3.096496 1_555
O21 P10 1.448865 1_555
O21 O9 2.376918 1_555
O22 P5 1.643126 1_555
O22 O39 2.689995 1_555
O23 P6 1.634499 1_555
O23 O8 2.675888 1_555
O24 P5 1.614035 1_555
O24 O47 1.621956 1_555
O24 O39 2.699848 1_555
O24 O45 2.765358 1_565
O25 P6 1.658881 1_555
O25 Zr3 2.153452 1_555
O25 O28 2.630581 1_555
O25 O8 2.702939 1_555
O26 P1 1.431780 1_555
O26 Zr3 2.146247 1_555
O26 O38 2.471245 1_555
O26 O6 3.115114 1_455
O27 P4 2.504972 1_556
O27 P7 2.650815 1_555
O27 O45 2.727260 1_555
O27 Zr0 2.743537 1_556
O27 O32 2.803044 1_555
O27 P11 2.812482 1_555
O28 P6 2.387551 1_555
O28 O5 2.701899 1_545
O28 O6 2.733602 1_555
O29 O36 1.847526 1_555
O29 P7 2.048016 1_555
O30 P8 1.425063 1_555
O30 O37 1.791413 1_555
O30 O38 1.803440 1_555
O30 Zr3 2.069414 1_555
O31 P3 2.335034 1_545
O31 O43 2.654538 1_655
O31 O42 2.709670 1_655
O31 P11 2.737049 1_655
O31 P8 2.738337 1_655
O32 P9 1.762597 1_555
O33 P9 1.446098 1_555
O33 Zr5 1.597914 1_455
O33 O45 2.991844 1_565
O34 O5 1.609299 1_555
O34 P0 1.839020 1_555
O35 P10 1.255274 1_555
O35 Zr2 1.561468 1_555
O35 O40 1.829434 1_555
O35 O6 2.381077 1_555
O36 P7 1.230677 1_555
O36 Zr5 1.512832 1_555
O37 P8 1.460024 1_555
O37 Zr2 1.505284 1_555
O38 P8 1.780002 1_555
O38 O41 2.740953 1_555
O39 O46 2.077082 1_565
O39 P2 2.340878 1_566
O39 P5 2.705645 1_555
O39 P9 2.773555 1_555
O40 P10 2.091938 1_555
O40 O47 2.333466 1_655
O41 P1 2.539358 1_555
O41 P10 2.618389 1_455
O41 P5 2.779904 1_555
O41 Zr4 2.822386 1_555
O41 O6 3.005322 1_455
O42 P11 1.603537 1_555
O43 P11 1.610181 1_555
O43 O45 2.755901 1_555
O44 P7 1.463709 1_555
O45 P11 2.405067 1_555
O45 Zr5 3.080844 1_445
O46 P2 1.337216 1_556
O47 P5 1.834890 1_555
