# generated using pymatgen
data_V3S4
_symmetry_space_group_name_H-M   'P 1'
_cell_length_a   18.15617983
_cell_length_b   18.15642302
_cell_length_c   6.49164806
_cell_angle_alpha   90.00000000
_cell_angle_beta   90.00000000
_cell_angle_gamma   120.00124705
_symmetry_Int_Tables_number   1
_chemical_formula_structural   V3S4
_chemical_formula_sum   'V48 S64'
_cell_volume   1853.25384263
_cell_formula_units_Z   16
loop_
 _symmetry_equiv_pos_site_id
 _symmetry_equiv_pos_as_xyz
  1  'x, y, z'
loop_
 _atom_site_type_symbol
 _atom_site_label
 _atom_site_symmetry_multiplicity
 _atom_site_fract_x
 _atom_site_fract_y
 _atom_site_fract_z
 _atom_site_occupancy
  V  V0_0  1  0.25567424  0.44185743  0.37500000  1
  V  V0_1  1  0.25567424  0.44185743  0.87500000  1
  V  V0_2  1  0.25567424  0.94185743  0.37500000  1
  V  V0_3  1  0.25567424  0.94185743  0.87500000  1
  V  V0_4  1  0.75567425  0.44185743  0.37500000  1
  V  V0_5  1  0.75567425  0.44185743  0.87500000  1
  V  V0_6  1  0.75567424  0.94185743  0.37500000  1
  V  V0_7  1  0.75567424  0.94185743  0.87500000  1
  V  V1_0  1  0.31382359  0.25567530  0.12500000  1
  V  V1_1  1  0.31382359  0.25567530  0.62500000  1
  V  V1_2  1  0.31382359  0.75567531  0.12500000  1
  V  V1_3  1  0.31382359  0.75567531  0.62500000  1
  V  V1_4  1  0.81382359  0.25567531  0.12500000  1
  V  V1_5  1  0.81382359  0.25567531  0.62500000  1
  V  V1_6  1  0.81382359  0.75567530  0.12500000  1
  V  V1_7  1  0.81382359  0.75567530  0.62500000  1
  V  V2_0  1  0.44185748  0.18618467  0.12500000  1
  V  V2_1  1  0.44185748  0.18618467  0.62500000  1
  V  V2_2  1  0.44185748  0.68618467  0.12500000  1
  V  V2_3  1  0.44185748  0.68618467  0.62500000  1
  V  V2_4  1  0.94185748  0.18618467  0.12500000  1
  V  V2_5  1  0.94185748  0.18618467  0.62500000  1
  V  V2_6  1  0.94185748  0.68618467  0.12500000  1
  V  V2_7  1  0.94185748  0.68618467  0.62500000  1
  V  V3_0  1  0.05814251  0.31381533  0.37500000  1
  V  V3_1  1  0.05814251  0.31381533  0.87500000  1
  V  V3_2  1  0.05814251  0.81381533  0.37500000  1
  V  V3_3  1  0.05814251  0.81381533  0.87500000  1
  V  V3_4  1  0.55814252  0.31381533  0.37500000  1
  V  V3_5  1  0.55814252  0.31381533  0.87500000  1
  V  V3_6  1  0.55814251  0.81381533  0.37500000  1
  V  V3_7  1  0.55814251  0.81381533  0.87500000  1
  V  V4_0  1  0.18617641  0.24432470  0.37500000  1
  V  V4_1  1  0.18617641  0.24432470  0.87500000  1
  V  V4_2  1  0.18617641  0.74432469  0.37500000  1
  V  V4_3  1  0.18617641  0.74432469  0.87500000  1
  V  V4_4  1  0.68617641  0.24432470  0.37500000  1
  V  V4_5  1  0.68617641  0.24432470  0.87500000  1
  V  V4_6  1  0.68617641  0.74432469  0.37500000  1
  V  V4_7  1  0.68617641  0.74432469  0.87500000  1
  V  V5_0  1  0.24432576  0.05814257  0.12500000  1
  V  V5_1  1  0.24432576  0.05814257  0.62500000  1
  V  V5_2  1  0.24432575  0.55814257  0.12500000  1
  V  V5_3  1  0.24432575  0.55814257  0.62500000  1
  V  V5_4  1  0.74432575  0.05814257  0.12500000  1
  V  V5_5  1  0.74432575  0.05814257  0.62500000  1
  V  V5_6  1  0.74432575  0.55814257  0.12500000  1
  V  V5_7  1  0.74432575  0.55814257  0.62500000  1
  S  S0_0  1  0.33334156  0.16667102  0.37500000  1
  S  S0_1  1  0.33334156  0.16667102  0.87500000  1
  S  S0_2  1  0.33334155  0.66667102  0.37500000  1
  S  S0_3  1  0.33334155  0.66667102  0.87500000  1
  S  S0_4  1  0.83334156  0.16667102  0.37500000  1
  S  S0_5  1  0.83334156  0.16667102  0.87500000  1
  S  S0_6  1  0.83334156  0.66667101  0.37500000  1
  S  S0_7  1  0.83334156  0.66667101  0.87500000  1
  S  S1_0  1  0.16665844  0.33332899  0.12500000  1
  S  S1_1  1  0.16665844  0.33332899  0.62500000  1
  S  S1_2  1  0.16665844  0.83332898  0.12500000  1
  S  S1_3  1  0.16665844  0.83332898  0.62500000  1
  S  S1_4  1  0.66665844  0.33332899  0.12500000  1
  S  S1_5  1  0.66665844  0.33332899  0.62500000  1
  S  S1_6  1  0.66665844  0.83332898  0.12500000  1
  S  S1_7  1  0.66665844  0.83332898  0.62500000  1
  S  S2_0  1  0.32690920  0.35274559  0.37500000  1
  S  S2_1  1  0.32690920  0.35274559  0.87500000  1
  S  S2_2  1  0.32690920  0.85274559  0.37500000  1
  S  S2_3  1  0.32690920  0.85274559  0.87500000  1
  S  S2_4  1  0.82690920  0.35274559  0.37500000  1
  S  S2_5  1  0.82690920  0.35274559  0.87500000  1
  S  S2_6  1  0.82690920  0.85274559  0.37500000  1
  S  S2_7  1  0.82690920  0.85274559  0.87500000  1
  S  S3_0  1  0.47416302  0.32690566  0.12500000  1
  S  S3_1  1  0.47416302  0.32690566  0.62500000  1
  S  S3_2  1  0.47416302  0.82690566  0.12500000  1
  S  S3_3  1  0.47416302  0.82690566  0.62500000  1
  S  S3_4  1  0.97416302  0.32690567  0.12500000  1
  S  S3_5  1  0.97416302  0.32690567  0.62500000  1
  S  S3_6  1  0.97416302  0.82690566  0.12500000  1
  S  S3_7  1  0.97416302  0.82690566  0.62500000  1
  S  S4_0  1  0.35274672  0.02583930  0.12500000  1
  S  S4_1  1  0.35274672  0.02583930  0.62500000  1
  S  S4_2  1  0.35274672  0.52583930  0.12500000  1
  S  S4_3  1  0.35274672  0.52583930  0.62500000  1
  S  S4_4  1  0.85274672  0.02583930  0.12500000  1
  S  S4_5  1  0.85274672  0.02583930  0.62500000  1
  S  S4_6  1  0.85274672  0.52583930  0.12500000  1
  S  S4_7  1  0.85274672  0.52583930  0.62500000  1
  S  S5_0  1  0.14725328  0.47416070  0.37500000  1
  S  S5_1  1  0.14725328  0.47416070  0.87500000  1
  S  S5_2  1  0.14725328  0.97416070  0.37500000  1
  S  S5_3  1  0.14725328  0.97416070  0.87500000  1
  S  S5_4  1  0.64725328  0.47416070  0.37500000  1
  S  S5_5  1  0.64725328  0.47416070  0.87500000  1
  S  S5_6  1  0.64725328  0.97416070  0.37500000  1
  S  S5_7  1  0.64725328  0.97416070  0.87500000  1
  S  S6_0  1  0.17309079  0.14725441  0.12500000  1
  S  S6_1  1  0.17309079  0.14725441  0.62500000  1
  S  S6_2  1  0.17309079  0.64725441  0.12500000  1
  S  S6_3  1  0.17309079  0.64725441  0.62500000  1
  S  S6_4  1  0.67309080  0.14725441  0.12500000  1
  S  S6_5  1  0.67309080  0.14725441  0.62500000  1
  S  S6_6  1  0.67309079  0.64725441  0.12500000  1
  S  S6_7  1  0.67309079  0.64725441  0.62500000  1
  S  S7_0  1  0.02583698  0.17309434  0.37500000  1
  S  S7_1  1  0.02583698  0.17309434  0.87500000  1
  S  S7_2  1  0.02583698  0.67309433  0.37500000  1
  S  S7_3  1  0.02583698  0.67309433  0.87500000  1
  S  S7_4  1  0.52583698  0.17309434  0.37500000  1
  S  S7_5  1  0.52583698  0.17309434  0.87500000  1
  S  S7_6  1  0.52583698  0.67309433  0.37500000  1
  S  S7_7  1  0.52583698  0.67309433  0.87500000  1
loop_
_geom_bond_atom_site_label_1
_geom_bond_atom_site_label_2
_geom_bond_distance
_geom_bond_site_symmetry_2
V0_0 V5_3 2.751186 1_555
V0_0 V5_2 2.751186 1_555
V0_1 V5_3 2.751186 1_555
V0_1 V5_2 2.751186 1_556
V0_2 V5_0 2.751186 1_565
V0_2 V5_1 2.751186 1_565
V0_3 V5_0 2.751186 1_566
V0_3 V5_1 2.751186 1_565
V0_4 V5_6 2.751186 1_555
V0_4 V5_7 2.751186 1_555
V0_5 V5_6 2.751186 1_556
V0_5 V5_7 2.751186 1_555
V0_6 V5_4 2.751186 1_565
V0_6 V5_5 2.751186 1_565
V0_7 V5_4 2.751186 1_566
V0_7 V5_5 2.751186 1_565
V1_0 V4_1 2.751341 1_554
V1_0 V4_0 2.751341 1_555
V1_1 V4_1 2.751341 1_555
V1_1 V4_0 2.751341 1_555
V1_2 V4_2 2.751341 1_555
V1_2 V4_3 2.751341 1_554
V1_3 V4_2 2.751341 1_555
V1_3 V4_3 2.751341 1_555
V1_4 V4_4 2.751341 1_555
V1_4 V4_5 2.751341 1_554
V1_5 V4_4 2.751341 1_555
V1_5 V4_5 2.751341 1_555
V1_6 V4_7 2.751341 1_554
V1_6 V4_6 2.751341 1_555
V1_7 V4_7 2.751341 1_555
V1_7 V4_6 2.751341 1_555
V2_0 V3_4 2.751115 1_555
V2_0 V3_5 2.751115 1_554
V2_1 V3_4 2.751115 1_555
V2_1 V3_5 2.751115 1_555
V2_2 V3_6 2.751115 1_555
V2_2 V3_7 2.751115 1_554
V2_3 V3_6 2.751115 1_555
V2_3 V3_7 2.751115 1_555
V2_4 V3_1 2.751115 1_654
V2_4 V3_0 2.751115 1_655
V2_5 V3_0 2.751115 1_655
V2_5 V3_1 2.751115 1_655
V2_6 V3_3 2.751115 1_654
V2_6 V3_2 2.751115 1_655
V2_7 V3_3 2.751115 1_655
V2_7 V3_2 2.751115 1_655
S0_0 V2_0 2.437851 1_555
S0_0 V2_1 2.437851 1_555
S0_0 V1_1 2.437942 1_555
S0_0 V1_0 2.437942 1_555
S0_0 V5_0 2.438018 1_555
S0_0 V5_1 2.438018 1_555
S0_1 V2_0 2.437851 1_556
S0_1 V2_1 2.437851 1_555
S0_1 V1_0 2.437942 1_556
S0_1 V1_1 2.437942 1_555
S0_1 V5_0 2.438018 1_556
S0_1 V5_1 2.438018 1_555
S0_2 V2_3 2.437851 1_555
S0_2 V2_2 2.437851 1_555
S0_2 V1_3 2.437942 1_555
S0_2 V1_2 2.437942 1_555
S0_2 V5_2 2.438018 1_555
S0_2 V5_3 2.438018 1_555
S0_3 V2_2 2.437851 1_556
S0_3 V2_3 2.437851 1_555
S0_3 V1_3 2.437942 1_555
S0_3 V1_2 2.437942 1_556
S0_3 V5_2 2.438018 1_556
S0_3 V5_3 2.438018 1_555
S0_4 V2_5 2.437851 1_555
S0_4 V2_4 2.437851 1_555
S0_4 V1_4 2.437942 1_555
S0_4 V1_5 2.437942 1_555
S0_4 V5_4 2.438018 1_555
S0_4 V5_5 2.438018 1_555
S0_5 V2_5 2.437851 1_555
S0_5 V2_4 2.437851 1_556
S0_5 V1_4 2.437942 1_556
S0_5 V1_5 2.437942 1_555
S0_5 V5_4 2.438018 1_556
S0_5 V5_5 2.438018 1_555
S0_6 V2_7 2.437851 1_555
S0_6 V2_6 2.437851 1_555
S0_6 V1_7 2.437942 1_555
S0_6 V1_6 2.437942 1_555
S0_6 V5_7 2.438018 1_555
S0_6 V5_6 2.438018 1_555
S0_7 V2_7 2.437851 1_555
S0_7 V2_6 2.437851 1_556
S0_7 V1_7 2.437942 1_555
S0_7 V1_6 2.437942 1_556
S0_7 V5_6 2.438018 1_556
S0_7 V5_7 2.438018 1_555
S1_0 V3_0 2.437851 1_555
S1_0 V3_1 2.437851 1_554
S1_0 V4_0 2.437942 1_555
S1_0 V4_1 2.437942 1_554
S1_0 V0_0 2.438018 1_555
S1_0 V0_1 2.438018 1_554
S1_1 V3_1 2.437851 1_555
S1_1 V3_0 2.437851 1_555
S1_1 V4_0 2.437942 1_555
S1_1 V4_1 2.437942 1_555
S1_1 V0_0 2.438018 1_555
S1_1 V0_1 2.438018 1_555
S1_2 V3_3 2.437851 1_554
S1_2 V3_2 2.437851 1_555
S1_2 V4_2 2.437942 1_555
S1_2 V4_3 2.437942 1_554
S1_2 V0_3 2.438018 1_554
S1_2 V0_2 2.438018 1_555
S1_3 V3_2 2.437851 1_555
S1_3 V3_3 2.437851 1_555
S1_3 V4_2 2.437942 1_555
S1_3 V4_3 2.437942 1_555
S1_3 V0_2 2.438018 1_555
S1_3 V0_3 2.438018 1_555
S1_4 V3_4 2.437851 1_555
S1_4 V3_5 2.437851 1_554
S1_4 V4_4 2.437942 1_555
S1_4 V4_5 2.437942 1_554
S1_4 V0_5 2.438018 1_554
S1_4 V0_4 2.438018 1_555
S1_5 V3_4 2.437851 1_555
S1_5 V3_5 2.437851 1_555
S1_5 V4_5 2.437942 1_555
S1_5 V4_4 2.437942 1_555
S1_5 V0_4 2.438018 1_555
S1_5 V0_5 2.438018 1_555
S1_6 V3_7 2.437851 1_554
S1_6 V3_6 2.437851 1_555
S1_6 V4_7 2.437942 1_554
S1_6 V4_6 2.437942 1_555
S1_6 V0_7 2.438018 1_554
S1_6 V0_6 2.438018 1_555
S1_7 V3_7 2.437851 1_555
S1_7 V3_6 2.437851 1_555
S1_7 V4_6 2.437942 1_555
S1_7 V4_7 2.437942 1_555
S1_7 V0_7 2.438018 1_555
S1_7 V0_6 2.438018 1_555
S2_0 V4_0 2.318166 1_555
S2_0 V1_1 2.319002 1_555
S2_0 V1_0 2.319002 1_555
S2_0 V0_0 2.526500 1_555
S2_0 S2_1 3.245824 1_554
S2_0 S2_1 3.245824 1_555
S2_1 V4_1 2.318166 1_555
S2_1 V1_1 2.319002 1_555
S2_1 V1_0 2.319002 1_556
S2_1 V0_1 2.526500 1_555
S2_2 V4_2 2.318166 1_555
S2_2 V1_2 2.319002 1_555
S2_2 V1_3 2.319002 1_555
S2_2 V0_2 2.526500 1_555
S2_2 S2_3 3.245824 1_554
S2_2 S2_3 3.245824 1_555
S2_3 V4_3 2.318166 1_555
S2_3 V1_2 2.319002 1_556
S2_3 V1_3 2.319002 1_555
S2_3 V0_3 2.526500 1_555
S2_4 V4_4 2.318166 1_555
S2_4 V1_4 2.319002 1_555
S2_4 V1_5 2.319002 1_555
S2_4 V0_4 2.526500 1_555
S2_4 S2_5 3.245824 1_555
S2_4 S2_5 3.245824 1_554
S2_5 V4_5 2.318166 1_555
S2_5 V1_5 2.319002 1_555
S2_5 V1_4 2.319002 1_556
S2_5 V0_5 2.526500 1_555
S2_6 V4_6 2.318166 1_555
S2_6 V1_7 2.319002 1_555
S2_6 V1_6 2.319002 1_555
S2_6 V0_6 2.526500 1_555
S2_6 S2_7 3.245824 1_554
S2_6 S2_7 3.245824 1_555
S2_7 V4_7 2.318166 1_555
S2_7 V1_7 2.319002 1_555
S2_7 V1_6 2.319002 1_556
S2_7 V0_7 2.526500 1_555
S3_0 V2_0 2.318046 1_555
S3_0 V3_4 2.318963 1_555
S3_0 V3_5 2.318963 1_554
S3_0 V1_0 2.526321 1_555
S3_0 S3_1 3.245824 1_555
S3_0 S3_1 3.245824 1_554
S3_1 V2_1 2.318046 1_555
S3_1 V3_4 2.318963 1_555
S3_1 V3_5 2.318963 1_555
S3_1 V1_1 2.526321 1_555
S3_2 V2_2 2.318046 1_555
S3_2 V3_7 2.318963 1_554
S3_2 V3_6 2.318963 1_555
S3_2 V1_2 2.526321 1_555
S3_2 S3_3 3.245824 1_555
S3_2 S3_3 3.245824 1_554
S3_3 V2_3 2.318046 1_555
S3_3 V3_6 2.318963 1_555
S3_3 V3_7 2.318963 1_555
S3_3 V1_3 2.526321 1_555
S3_4 V2_4 2.318046 1_555
S3_4 V3_1 2.318963 1_654
S3_4 V3_0 2.318963 1_655
S3_4 V1_4 2.526321 1_555
S3_4 S3_5 3.245824 1_554
S3_4 S3_5 3.245824 1_555
S3_5 V2_5 2.318046 1_555
S3_5 V3_1 2.318963 1_655
S3_5 V3_0 2.318963 1_655
S3_5 V1_5 2.526321 1_555
S3_6 V2_6 2.318046 1_555
S3_6 V3_2 2.318963 1_655
S3_6 V3_3 2.318963 1_654
S3_6 V1_6 2.526321 1_555
S3_6 S3_7 3.245824 1_555
S3_6 S3_7 3.245824 1_554
S3_7 V2_7 2.318046 1_555
S3_7 V3_2 2.318963 1_655
S3_7 V3_3 2.318963 1_655
S3_7 V1_7 2.526321 1_555
S4_0 V5_0 2.318109 1_555
S4_0 V0_3 2.318975 1_544
S4_0 V0_2 2.318975 1_545
S4_0 V2_0 2.526439 1_555
S4_0 S4_1 3.245824 1_555
S4_0 S4_1 3.245824 1_554
S4_1 V5_1 2.318109 1_555
S4_1 V0_2 2.318975 1_545
S4_1 V0_3 2.318975 1_545
S4_1 V2_1 2.526439 1_555
S4_2 V5_2 2.318109 1_555
S4_2 V0_1 2.318975 1_554
S4_2 V0_0 2.318975 1_555
S4_2 V2_2 2.526439 1_555
S4_2 S4_3 3.245824 1_554
S4_2 S4_3 3.245824 1_555
S4_3 V5_3 2.318109 1_555
S4_3 V0_0 2.318975 1_555
S4_3 V0_1 2.318975 1_555
S4_3 V2_3 2.526439 1_555
S4_4 V5_4 2.318109 1_555
S4_4 V0_7 2.318975 1_544
S4_4 V0_6 2.318975 1_545
S4_4 V2_4 2.526439 1_555
S4_4 S4_5 3.245824 1_555
S4_4 S4_5 3.245824 1_554
S4_5 V5_5 2.318109 1_555
S4_5 V0_7 2.318975 1_545
S4_5 V0_6 2.318975 1_545
S4_5 V2_5 2.526439 1_555
S4_6 V5_6 2.318109 1_555
S4_6 V0_5 2.318975 1_554
S4_6 V0_4 2.318975 1_555
S4_6 V2_6 2.526439 1_555
S4_6 S4_7 3.245824 1_555
S4_6 S4_7 3.245824 1_554
S4_7 V5_7 2.318109 1_555
S4_7 V0_4 2.318975 1_555
S4_7 V0_5 2.318975 1_555
S4_7 V2_7 2.526439 1_555
S5_0 V0_0 2.318109 1_555
S5_0 V5_2 2.318975 1_555
S5_0 V5_3 2.318975 1_555
S5_0 V3_0 2.526439 1_555
S5_0 S5_1 3.245824 1_555
S5_0 S5_1 3.245824 1_554
S5_1 V0_1 2.318109 1_555
S5_1 V5_2 2.318975 1_556
S5_1 V5_3 2.318975 1_555
S5_1 V3_1 2.526439 1_555
S5_2 V0_2 2.318109 1_555
S5_2 V5_1 2.318975 1_565
S5_2 V5_0 2.318975 1_565
S5_2 V3_2 2.526439 1_555
S5_2 S5_3 3.245824 1_554
S5_2 S5_3 3.245824 1_555
S5_3 V0_3 2.318109 1_555
S5_3 V5_0 2.318975 1_566
S5_3 V5_1 2.318975 1_565
S5_3 V3_3 2.526439 1_555
S5_4 V0_4 2.318109 1_555
S5_4 V5_6 2.318975 1_555
S5_4 V5_7 2.318975 1_555
S5_4 V3_4 2.526439 1_555
S5_4 S5_5 3.245824 1_554
S5_4 S5_5 3.245824 1_555
S5_5 V0_5 2.318109 1_555
S5_5 V5_6 2.318975 1_556
S5_5 V5_7 2.318975 1_555
S5_5 V3_5 2.526439 1_555
S5_6 V0_6 2.318109 1_555
S5_6 V5_4 2.318975 1_565
S5_6 V5_5 2.318975 1_565
S5_6 V3_6 2.526439 1_555
S5_6 S5_7 3.245824 1_554
S5_6 S5_7 3.245824 1_555
S5_7 V0_7 2.318109 1_555
S5_7 V5_5 2.318975 1_565
S5_7 V5_4 2.318975 1_566
S5_7 V3_7 2.526439 1_555
S6_0 V1_0 2.318166 1_555
S6_0 V4_0 2.319002 1_555
S6_0 V4_1 2.319002 1_554
S6_0 V5_0 2.526500 1_555
S6_0 S6_1 3.245824 1_554
S6_0 S6_1 3.245824 1_555
S6_1 V1_1 2.318166 1_555
S6_1 V4_1 2.319002 1_555
S6_1 V4_0 2.319002 1_555
S6_1 V5_1 2.526500 1_555
S6_2 V1_2 2.318166 1_555
S6_2 V4_3 2.319002 1_554
S6_2 V4_2 2.319002 1_555
S6_2 V5_2 2.526500 1_555
S6_2 S6_3 3.245824 1_555
S6_2 S6_3 3.245824 1_554
S6_3 V1_3 2.318166 1_555
S6_3 V4_3 2.319002 1_555
S6_3 V4_2 2.319002 1_555
S6_3 V5_3 2.526500 1_555
S6_4 V1_4 2.318166 1_555
S6_4 V4_4 2.319002 1_555
S6_4 V4_5 2.319002 1_554
S6_4 V5_4 2.526500 1_555
S6_4 S6_5 3.245824 1_555
S6_4 S6_5 3.245824 1_554
S6_5 V1_5 2.318166 1_555
S6_5 V4_5 2.319002 1_555
S6_5 V4_4 2.319002 1_555
S6_5 V5_5 2.526500 1_555
S6_6 V1_6 2.318166 1_555
S6_6 V4_6 2.319002 1_555
S6_6 V4_7 2.319002 1_554
S6_6 V5_6 2.526500 1_555
S6_6 S6_7 3.245824 1_555
S6_6 S6_7 3.245824 1_554
S6_7 V1_7 2.318166 1_555
S6_7 V4_6 2.319002 1_555
S6_7 V4_7 2.319002 1_555
S6_7 V5_7 2.526500 1_555
S7_0 V3_0 2.318046 1_555
S7_0 V2_4 2.318963 1_455
S7_0 V2_5 2.318963 1_455
S7_0 V4_0 2.526321 1_555
S7_0 S7_1 3.245824 1_554
S7_0 S7_1 3.245824 1_555
S7_1 V3_1 2.318046 1_555
S7_1 V2_5 2.318963 1_455
S7_1 V2_4 2.318963 1_456
S7_1 V4_1 2.526321 1_555
S7_2 V3_2 2.318046 1_555
S7_2 V2_6 2.318963 1_455
S7_2 V2_7 2.318963 1_455
S7_2 V4_2 2.526321 1_555
S7_2 S7_3 3.245824 1_555
S7_2 S7_3 3.245824 1_554
S7_3 V3_3 2.318046 1_555
S7_3 V2_6 2.318963 1_456
S7_3 V2_7 2.318963 1_455
S7_3 V4_3 2.526321 1_555
S7_4 V3_4 2.318046 1_555
S7_4 V2_0 2.318963 1_555
S7_4 V2_1 2.318963 1_555
S7_4 V4_4 2.526321 1_555
S7_4 S7_5 3.245824 1_554
S7_4 S7_5 3.245824 1_555
S7_5 V3_5 2.318046 1_555
S7_5 V2_0 2.318963 1_556
S7_5 V2_1 2.318963 1_555
S7_5 V4_5 2.526321 1_555
S7_6 V3_6 2.318046 1_555
S7_6 V2_3 2.318963 1_555
S7_6 V2_2 2.318963 1_555
S7_6 V4_6 2.526321 1_555
S7_6 S7_7 3.245824 1_555
S7_6 S7_7 3.245824 1_554
S7_7 V3_7 2.318046 1_555
S7_7 V2_2 2.318963 1_556
S7_7 V2_3 2.318963 1_555
S7_7 V4_7 2.526321 1_555
