# generated using pymatgen
data_K3HoSi3O10
_symmetry_space_group_name_H-M   'P 1'
_cell_length_a   5.94599600
_cell_length_b   13.25410000
_cell_length_c   13.59456600
_cell_angle_alpha   90.00000000
_cell_angle_beta   90.00000000
_cell_angle_gamma   90.00000000
_symmetry_Int_Tables_number   1
_chemical_formula_structural   K3HoSi3O10
_chemical_formula_sum   'K12 Ho4 Si12 O40'
_cell_volume   1071.37178078
_cell_formula_units_Z   4
loop_
 _symmetry_equiv_pos_site_id
 _symmetry_equiv_pos_as_xyz
  1  'x, y, z'
loop_
 _atom_site_type_symbol
 _atom_site_label
 _atom_site_symmetry_multiplicity
 _atom_site_fract_x
 _atom_site_fract_y
 _atom_site_fract_z
 _atom_site_occupancy
  K  K0  1  0.92298600  0.37218300  0.75000000  1
  K  K1  1  0.57701400  0.87218300  0.75000000  1
  K  K2  1  0.07701400  0.62781700  0.25000000  1
  K  K3  1  0.42298600  0.12781700  0.25000000  1
  K  K4  1  0.91361000  0.86272500  0.51568100  1
  K  K5  1  0.58639000  0.36272500  0.98431900  1
  K  K6  1  0.08639000  0.13727500  0.01568100  1
  K  K7  1  0.41361000  0.63727500  0.48431900  1
  K  K8  1  0.08639000  0.13727500  0.48431900  1
  K  K9  1  0.41361000  0.63727500  0.01568100  1
  K  K10  1  0.91361000  0.86272500  0.98431900  1
  K  K11  1  0.58639000  0.36272500  0.51568100  1
  Ho  Ho0  1  0.08556000  0.03916200  0.75000000  1
  Ho  Ho1  1  0.41444000  0.53916200  0.75000000  1
  Ho  Ho2  1  0.91444000  0.96083800  0.25000000  1
  Ho  Ho3  1  0.58556000  0.46083800  0.25000000  1
  Si  Si0  1  0.58930300  0.09669000  0.60129000  1
  Si  Si1  1  0.91069700  0.59669000  0.89871000  1
  Si  Si2  1  0.41069700  0.90331000  0.10129000  1
  Si  Si3  1  0.08930300  0.40331000  0.39871000  1
  Si  Si4  1  0.41069700  0.90331000  0.39871000  1
  Si  Si5  1  0.08930300  0.40331000  0.10129000  1
  Si  Si6  1  0.58930300  0.09669000  0.89871000  1
  Si  Si7  1  0.91069700  0.59669000  0.60129000  1
  Si  Si8  1  0.41518900  0.25258500  0.75000000  1
  Si  Si9  1  0.08481100  0.75258500  0.75000000  1
  Si  Si10  1  0.58481100  0.74741500  0.25000000  1
  Si  Si11  1  0.91518900  0.24741500  0.25000000  1
  O  O0  1  0.58422700  0.13310200  0.48387800  1
  O  O1  1  0.91577300  0.63310200  0.01612200  1
  O  O2  1  0.41577300  0.86689800  0.98387800  1
  O  O3  1  0.08422700  0.36689800  0.51612200  1
  O  O4  1  0.41577300  0.86689800  0.51612200  1
  O  O5  1  0.08422700  0.36689800  0.98387800  1
  O  O6  1  0.58422700  0.13310200  0.01612200  1
  O  O7  1  0.91577300  0.63310200  0.48387800  1
  O  O8  1  0.82456000  0.04422000  0.63132300  1
  O  O9  1  0.67544000  0.54422000  0.86867700  1
  O  O10  1  0.17544000  0.95578000  0.13132300  1
  O  O11  1  0.32456000  0.45578000  0.36867700  1
  O  O12  1  0.17544000  0.95578000  0.36867700  1
  O  O13  1  0.32456000  0.45578000  0.13132300  1
  O  O14  1  0.82456000  0.04422000  0.86867700  1
  O  O15  1  0.67544000  0.54422000  0.63132300  1
  O  O16  1  0.36476300  0.03196500  0.63181800  1
  O  O17  1  0.13523700  0.53196500  0.86818200  1
  O  O18  1  0.63523700  0.96803500  0.13181800  1
  O  O19  1  0.86476300  0.46803500  0.36818200  1
  O  O20  1  0.63523700  0.96803500  0.36818200  1
  O  O21  1  0.86476300  0.46803500  0.13181800  1
  O  O22  1  0.36476300  0.03196500  0.86818200  1
  O  O23  1  0.13523700  0.53196500  0.63181800  1
  O  O24  1  0.56797300  0.21104200  0.65383100  1
  O  O25  1  0.93202700  0.71104200  0.84616900  1
  O  O26  1  0.43202700  0.78895800  0.15383100  1
  O  O27  1  0.06797300  0.28895800  0.34616900  1
  O  O28  1  0.43202700  0.78895800  0.34616900  1
  O  O29  1  0.06797300  0.28895800  0.15383100  1
  O  O30  1  0.56797300  0.21104200  0.84616900  1
  O  O31  1  0.93202700  0.71104200  0.65383100  1
  O  O32  1  0.16806100  0.20344500  0.75000000  1
  O  O33  1  0.33193900  0.70344500  0.75000000  1
  O  O34  1  0.83193900  0.79655500  0.25000000  1
  O  O35  1  0.66806100  0.29655500  0.25000000  1
  O  O36  1  0.43262500  0.37306200  0.75000000  1
  O  O37  1  0.06737500  0.87306200  0.75000000  1
  O  O38  1  0.56737500  0.62693800  0.25000000  1
  O  O39  1  0.93262500  0.12693800  0.25000000  1
loop_
_geom_bond_atom_site_label_1
_geom_bond_atom_site_label_2
_geom_bond_distance
_geom_bond_site_symmetry_2
K0 O32 2.669321 1_655
K0 O36 2.915708 1_555
K0 O17 2.942611 1_655
K0 O23 2.942611 1_655
K0 O36 3.030334 1_655
K0 O9 3.157331 1_555
K0 O15 3.157331 1_555
K0 O30 3.275165 1_555
K0 O24 3.275165 1_555
K0 O5 3.321613 1_655
K0 O3 3.321613 1_655
K1 O33 2.669321 1_555
K1 O37 2.915708 1_655
K1 O22 2.942611 1_565
K1 O16 2.942611 1_565
K1 O37 3.030334 1_555
K1 O14 3.157331 1_565
K1 O8 3.157331 1_565
K1 O25 3.275165 1_555
K1 O31 3.275165 1_555
K1 O2 3.321613 1_555
K1 O4 3.321613 1_555
K2 O34 2.669321 1_455
K2 O38 2.915708 1_555
K2 O21 2.942611 1_455
K2 O19 2.942611 1_455
K2 O38 3.030334 1_455
K2 O11 3.157331 1_555
K2 O13 3.157331 1_555
K2 O28 3.275165 1_555
K2 O26 3.275165 1_555
K2 O7 3.321613 1_455
K2 O1 3.321613 1_455
K3 O35 2.669321 1_555
K3 O39 2.915708 1_455
K3 O20 2.942611 1_545
K3 O18 2.942611 1_545
K3 O39 3.030334 1_555
K3 O12 3.157331 1_545
K3 O10 3.157331 1_545
K3 O27 3.275165 1_555
K3 O29 3.275165 1_555
K3 O0 3.321613 1_555
K3 O6 3.321613 1_555
K4 O31 2.753363 1_555
K4 O12 2.817579 1_655
K4 O8 2.922080 1_565
K4 O20 2.951050 1_555
K4 O4 2.960660 1_555
K4 O4 2.986377 1_655
K4 O7 3.074029 1_555
K4 O37 3.316908 1_655
K5 O30 2.753363 1_555
K5 O13 2.817579 1_556
K5 O9 2.922080 1_555
K5 O21 2.951050 1_556
K5 O5 2.960660 1_655
K5 O5 2.986377 1_555
K5 O6 3.074029 1_556
K5 O36 3.316908 1_555
K6 O29 2.753363 1_555
K6 O14 2.817579 1_454
K6 O10 2.922080 1_545
K6 O22 2.951050 1_554
K6 O6 2.960660 1_555
K6 O6 2.986377 1_455
K6 O5 3.074029 1_554
K6 O39 3.316908 1_455
K7 O28 2.753363 1_555
K7 O15 2.817579 1_555
K7 O11 2.922080 1_555
K7 O23 2.951050 1_555
K7 O7 2.960660 1_455
K7 O7 2.986377 1_555
K7 O4 3.074029 1_555
K7 O38 3.316908 1_555
K8 O27 2.753363 1_555
K8 O8 2.817579 1_455
K8 O12 2.922080 1_545
K8 O16 2.951050 1_555
K8 O0 2.960660 1_555
K8 O0 2.986377 1_455
K8 O3 3.074029 1_555
K8 O39 3.316908 1_455
K9 O26 2.753363 1_555
K9 O9 2.817579 1_554
K9 O13 2.922080 1_555
K9 O17 2.951050 1_554
K9 O1 2.960660 1_455
K9 O1 2.986377 1_555
K9 O2 3.074029 1_554
K9 O38 3.316908 1_555
K10 O25 2.753363 1_555
K10 O10 2.817579 1_656
K10 O14 2.922080 1_565
K10 O18 2.951050 1_556
K10 O2 2.960660 1_555
K10 O2 2.986377 1_655
K10 O1 3.074029 1_556
K10 O37 3.316908 1_655
K11 O24 2.753363 1_555
K11 O11 2.817579 1_555
K11 O15 2.922080 1_555
K11 O19 2.951050 1_555
K11 O3 2.960660 1_655
K11 O3 2.986377 1_555
K11 O0 3.074029 1_555
K11 O36 3.316908 1_555
Ho0 O37 2.204160 1_545
Ho0 O32 2.231997 1_555
Ho0 O14 2.239607 1_455
Ho0 O8 2.239607 1_455
Ho0 O22 2.312236 1_555
Ho0 O16 2.312236 1_555
Ho1 O36 2.204160 1_555
Ho1 O33 2.231997 1_555
Ho1 O9 2.239607 1_555
Ho1 O15 2.239607 1_555
Ho1 O23 2.312236 1_555
Ho1 O17 2.312236 1_555
Ho2 O39 2.204160 1_565
Ho2 O34 2.231997 1_555
Ho2 O12 2.239607 1_655
Ho2 O10 2.239607 1_655
Ho2 O18 2.312236 1_555
Ho2 O20 2.312236 1_555
Ho3 O38 2.204160 1_555
Ho3 O35 2.231997 1_555
Ho3 O11 2.239607 1_555
Ho3 O13 2.239607 1_555
Ho3 O21 2.312236 1_555
Ho3 O19 2.312236 1_555
O0 Si0 1.667802 1_555
O1 Si1 1.667802 1_554
O2 Si2 1.667802 1_556
O3 Si3 1.667802 1_555
O4 Si4 1.667802 1_555
O5 Si5 1.667802 1_556
O6 Si6 1.667802 1_554
O7 Si7 1.667802 1_555
O8 Si0 1.614646 1_555
O9 Si1 1.614646 1_555
O10 Si2 1.614646 1_555
O11 Si3 1.614646 1_555
O12 Si4 1.614646 1_555
O13 Si5 1.614646 1_555
O14 Si6 1.614646 1_555
O15 Si7 1.614646 1_555
O16 Si0 1.640338 1_555
O17 Si1 1.640338 1_455
O18 Si2 1.640338 1_555
O19 Si3 1.640338 1_655
O20 Si4 1.640338 1_555
O21 Si5 1.640338 1_655
O22 Si6 1.640338 1_555
O23 Si7 1.640338 1_455
O24 Si0 1.680301 1_555
O24 Si8 1.684546 1_555
O25 Si1 1.680301 1_555
O25 Si9 1.684546 1_655
O26 Si2 1.680301 1_555
O26 Si10 1.684546 1_555
O27 Si3 1.680301 1_555
O27 Si11 1.684546 1_455
O28 Si4 1.680301 1_555
O28 Si10 1.684546 1_555
O29 Si5 1.680301 1_555
O29 Si11 1.684546 1_455
O30 Si6 1.680301 1_555
O30 Si8 1.684546 1_555
O31 Si7 1.680301 1_555
O31 Si9 1.684546 1_655
O32 Si8 1.607296 1_555
O33 Si9 1.607296 1_555
O34 Si10 1.607296 1_555
O35 Si11 1.607296 1_555
O36 Si8 1.600176 1_555
O37 Si9 1.600176 1_555
O38 Si10 1.600176 1_555
O39 Si11 1.600176 1_555
