# generated using pymatgen
data_Na5Bi2P(CO4)4
_symmetry_space_group_name_H-M   'P 1'
_cell_length_a   10.46516854
_cell_length_b   10.43337802
_cell_length_c   10.34180476
_cell_angle_alpha   60.49280459
_cell_angle_beta   60.18670568
_cell_angle_gamma   59.32048972
_symmetry_Int_Tables_number   1
_chemical_formula_structural   Na5Bi2P(CO4)4
_chemical_formula_sum   'Na10 Bi4 P2 C8 O32'
_cell_volume   798.27984428
_cell_formula_units_Z   2
loop_
 _symmetry_equiv_pos_site_id
 _symmetry_equiv_pos_as_xyz
  1  'x, y, z'
loop_
 _atom_site_type_symbol
 _atom_site_label
 _atom_site_symmetry_multiplicity
 _atom_site_fract_x
 _atom_site_fract_y
 _atom_site_fract_z
 _atom_site_occupancy
  Na  Na0  1  0.55614500  0.94385500  0.55614500  1
  Na  Na1  1  0.69123200  0.30876800  0.30876800  1
  Na  Na2  1  0.30961700  0.69038300  0.30961700  1
  Na  Na3  1  0.94258300  0.94258300  0.55741700  1
  Na  Na4  1  0.94449400  0.55550600  0.55550600  1
  Na  Na5  1  0.55741700  0.55741700  0.94258300  1
  Na  Na6  1  0.30876800  0.69123200  0.69123200  1
  Na  Na7  1  0.94385500  0.55614500  0.94385500  1
  Na  Na8  1  0.55550600  0.94449400  0.94449400  1
  Na  Na9  1  0.69038300  0.30961700  0.69038300  1
  Bi  Bi0  1  0.13010500  0.12827800  0.11776600  1
  Bi  Bi1  1  0.62385100  0.11776600  0.12827800  1
  Bi  Bi2  1  0.11776600  0.62385100  0.13010500  1
  Bi  Bi3  1  0.12827800  0.13010500  0.62385100  1
  P  P0  1  0.75000000  0.75000000  0.75000000  1
  P  P1  1  0.50000000  0.50000000  0.50000000  1
  C  C0  1  0.34399000  0.96298700  0.34500200  1
  C  C1  1  0.34500200  0.34802200  0.34399000  1
  C  C2  1  0.96298700  0.34399000  0.34802200  1
  C  C3  1  0.34802200  0.34500200  0.96298700  1
  C  C4  1  0.90591800  0.90721000  0.29334600  1
  C  C5  1  0.29334600  0.89352700  0.90591800  1
  C  C6  1  0.89352700  0.29334600  0.90721000  1
  C  C7  1  0.90721000  0.90591800  0.89352700  1
  O  O0  1  0.91782200  0.02627000  0.29209000  1
  O  O1  1  0.33887200  0.96057100  0.47468000  1
  O  O2  1  0.47468000  0.22587600  0.33887200  1
  O  O3  1  0.76381900  0.29209000  0.02627000  1
  O  O4  1  0.21958200  0.34191100  0.46622000  1
  O  O5  1  0.68890100  0.68934200  0.93345100  1
  O  O6  1  0.93345100  0.68830600  0.68890100  1
  O  O7  1  0.22443100  0.95823900  0.33983100  1
  O  O8  1  0.33983100  0.47749900  0.22443100  1
  O  O9  1  0.47749900  0.33983100  0.95823900  1
  O  O10  1  0.95823900  0.22443100  0.47749900  1
  O  O11  1  0.68830600  0.93345100  0.68934200  1
  O  O12  1  0.68934200  0.68890100  0.68830600  1
  O  O13  1  0.02509700  0.77494000  0.29528300  1
  O  O14  1  0.29528300  0.90468000  0.02509700  1
  O  O15  1  0.97228700  0.46622000  0.34191100  1
  O  O16  1  0.29209000  0.76381900  0.91782200  1
  O  O17  1  0.22587600  0.47468000  0.96057100  1
  O  O18  1  0.96057100  0.33887200  0.22587600  1
  O  O19  1  0.55787100  0.55831800  0.56812400  1
  O  O20  1  0.56812400  0.31568700  0.55787100  1
  O  O21  1  0.29527300  0.01013800  0.77558000  1
  O  O22  1  0.77558000  0.91900800  0.29527300  1
  O  O23  1  0.01013800  0.29527300  0.91900800  1
  O  O24  1  0.91900800  0.77558000  0.01013800  1
  O  O25  1  0.31568700  0.56812400  0.55831800  1
  O  O26  1  0.55831800  0.55787100  0.31568700  1
  O  O27  1  0.02627000  0.91782200  0.76381900  1
  O  O28  1  0.46622000  0.97228700  0.21958200  1
  O  O29  1  0.77494000  0.02509700  0.90468000  1
  O  O30  1  0.90468000  0.29528300  0.77494000  1
  O  O31  1  0.34191100  0.21958200  0.97228700  1
loop_
_geom_bond_atom_site_label_1
_geom_bond_atom_site_label_2
_geom_bond_distance
_geom_bond_site_symmetry_2
Na0 O11 2.327262 1_555
Na0 O12 2.327262 1_555
Na0 O21 2.557402 1_565
Na0 O22 2.557404 1_555
Na0 O2 2.695509 1_565
Na0 O1 2.695514 1_555
Na1 O26 2.256048 1_555
Na1 O20 2.256048 1_555
Na1 O18 2.648398 1_555
Na1 O2 2.648408 1_555
Na1 O3 2.702192 1_555
Na1 O0 2.702195 1_555
Na2 O26 2.257071 1_555
Na2 O25 2.257071 1_555
Na2 O7 2.596774 1_555
Na2 O8 2.596774 1_555
Na2 O14 2.701026 1_555
Na2 O13 2.701026 1_555
Na3 O6 2.339296 1_555
Na3 O11 2.339296 1_555
Na3 O0 2.544581 1_565
Na3 O27 2.544591 1_655
Na3 O7 2.705572 1_655
Na3 O10 2.705572 1_565
Na4 O12 2.323190 1_555
Na4 O6 2.323190 1_555
Na4 O30 2.615282 1_555
Na4 O13 2.615282 1_655
Na4 O15 2.635063 1_555
Na4 O4 2.635063 1_655
Na5 O12 2.339296 1_555
Na5 O5 2.339296 1_555
Na5 O16 2.544583 1_555
Na5 O3 2.544586 1_556
Na5 O9 2.705572 1_555
Na5 O8 2.705572 1_556
Na6 O25 2.256048 1_555
Na6 O19 2.256048 1_555
Na6 O1 2.648400 1_555
Na6 O17 2.648403 1_555
Na6 O27 2.702196 1_555
Na6 O16 2.702202 1_555
Na7 O6 2.327262 1_555
Na7 O5 2.327262 1_555
Na7 O24 2.557397 1_556
Na7 O23 2.557407 1_655
Na7 O17 2.695504 1_655
Na7 O18 2.695507 1_556
Na8 O5 2.323190 1_555
Na8 O11 2.323190 1_555
Na8 O14 2.615282 1_556
Na8 O29 2.615282 1_565
Na8 O31 2.635063 1_565
Na8 O28 2.635063 1_556
Na9 O20 2.257071 1_555
Na9 O19 2.257071 1_555
Na9 O9 2.596774 1_555
Na9 O10 2.596774 1_555
Na9 O30 2.701026 1_555
Na9 O29 2.701026 1_555
Bi0 O31 2.347592 1_554
Bi0 O23 2.375503 1_554
Bi0 O18 2.386404 1_455
Bi0 O14 2.405989 1_545
Bi0 O7 2.418601 1_545
Bi0 O0 2.420441 1_455
Bi1 O28 2.347592 1_545
Bi1 O22 2.375497 1_545
Bi1 O2 2.386403 1_555
Bi1 O29 2.405989 1_554
Bi1 O9 2.418601 1_554
Bi1 O3 2.420449 1_555
Bi2 O15 2.347592 1_455
Bi2 O24 2.375503 1_455
Bi2 O17 2.386412 1_554
Bi2 O13 2.405989 1_555
Bi2 O8 2.418601 1_555
Bi2 O16 2.420446 1_554
Bi3 O4 2.347592 1_555
Bi3 O21 2.375495 1_555
Bi3 O1 2.386409 1_545
Bi3 O30 2.405989 1_455
Bi3 O10 2.418601 1_455
Bi3 O27 2.420440 1_545
C0 O28 1.296513 1_555
C0 O1 1.303349 1_555
C0 O7 1.305075 1_555
C1 O4 1.296514 1_555
C1 O2 1.303359 1_555
C1 O8 1.305070 1_555
C2 O15 1.296509 1_555
C2 O18 1.303369 1_555
C2 O10 1.305070 1_555
C3 O31 1.296519 1_555
C3 O17 1.303358 1_555
C3 O9 1.305065 1_555
C4 O22 1.296194 1_555
C4 O0 1.303518 1_565
C4 O13 1.304460 1_655
C5 O21 1.296185 1_565
C5 O16 1.303518 1_555
C5 O14 1.304454 1_556
C6 O23 1.296174 1_655
C6 O3 1.303518 1_556
C6 O30 1.304465 1_555
C7 O24 1.296185 1_556
C7 O27 1.303518 1_655
C7 O29 1.304460 1_565
O5 P0 1.559723 1_555
O6 P0 1.559723 1_555
O11 P0 1.559723 1_555
O12 P0 1.559723 1_555
O19 P1 1.567144 1_555
O20 P1 1.567144 1_555
O25 P1 1.567144 1_555
O26 P1 1.567144 1_555
