# generated using pymatgen
data_RbTaO3
_symmetry_space_group_name_H-M   'P 1'
_cell_length_a   4.09155295
_cell_length_b   4.09155295
_cell_length_c   4.09155242
_cell_angle_alpha   89.91297528
_cell_angle_beta   89.91297528
_cell_angle_gamma   89.91298191
_symmetry_Int_Tables_number   1
_chemical_formula_structural   RbTaO3
_chemical_formula_sum   'Rb1 Ta1 O3'
_cell_volume   68.49564662
_cell_formula_units_Z   1
loop_
 _symmetry_equiv_pos_site_id
 _symmetry_equiv_pos_as_xyz
  1  'x, y, z'
loop_
 _atom_site_type_symbol
 _atom_site_label
 _atom_site_symmetry_multiplicity
 _atom_site_fract_x
 _atom_site_fract_y
 _atom_site_fract_z
 _atom_site_occupancy
  Rb  Rb0  1  0.97718900  0.97718900  0.97718900  1
  Ta  Ta0  1  0.48841500  0.48841500  0.48841500  1
  O  O0  1  0.46821800  0.96198100  0.46821800  1
  O  O1  1  0.46821800  0.46821800  0.96198100  1
  O  O2  1  0.96198100  0.46821800  0.46821800  1
loop_
_geom_bond_atom_site_label_1
_geom_bond_atom_site_label_2
_geom_bond_distance
_geom_bond_site_symmetry_2
O0 Ta0 1.940896 1_555
O0 Ta0 2.157356 1_565
O0 Rb0 2.843960 1_454
O0 Rb0 2.892105 1_455
O0 Rb0 2.892105 1_554
O0 Rb0 2.948100 1_555
O1 Ta0 1.940896 1_555
O1 Ta0 2.157356 1_556
O1 Rb0 2.843960 1_445
O1 Rb0 2.892106 1_455
O1 Rb0 2.892106 1_545
O1 Rb0 2.948100 1_555
O2 Ta0 1.940896 1_555
O2 Ta0 2.157356 1_655
O2 Rb0 2.843960 1_544
O2 Rb0 2.892105 1_545
O2 Rb0 2.892105 1_554
O2 Rb0 2.948100 1_555
