# generated using pymatgen
data_Li7V8(PO4)12
_symmetry_space_group_name_H-M   'P 1'
_cell_length_a   8.53116700
_cell_length_b   8.71926414
_cell_length_c   12.07603185
_cell_angle_alpha   90.26103485
_cell_angle_beta   90.24902516
_cell_angle_gamma   90.58284667
_symmetry_Int_Tables_number   1
_chemical_formula_structural   Li7V8(PO4)12
_chemical_formula_sum   'Li7 V8 P12 O48'
_cell_volume   898.21718217
_cell_formula_units_Z   1
loop_
 _symmetry_equiv_pos_site_id
 _symmetry_equiv_pos_as_xyz
  1  'x, y, z'
loop_
 _atom_site_type_symbol
 _atom_site_label
 _atom_site_symmetry_multiplicity
 _atom_site_fract_x
 _atom_site_fract_y
 _atom_site_fract_z
 _atom_site_occupancy
  Li  Li0  1  0.69690000  0.22050900  0.67698500  1
  Li  Li1  1  0.20352400  0.28461100  0.17608900  1
  Li  Li2  1  0.79971300  0.71743300  0.82213300  1
  Li  Li3  1  0.76771700  0.77731900  0.17974400  1
  Li  Li4  1  0.73184500  0.28112000  0.32248700  1
  Li  Li5  1  0.30005500  0.78494100  0.32322500  1
  Li  Li6  1  0.26588200  0.72079300  0.68505700  1
  V  V0  1  0.75389900  0.54196100  0.61267700  1
  V  V1  1  0.74792100  0.03950500  0.88460700  1
  V  V2  1  0.24946100  0.03764100  0.61958900  1
  V  V3  1  0.74699000  0.46241000  0.11605200  1
  V  V4  1  0.24533600  0.46135500  0.38830600  1
  V  V5  1  0.25180400  0.96371400  0.11163300  1
  V  V6  1  0.75218000  0.96540300  0.38414100  1
  V  V7  1  0.25226700  0.52411800  0.88659400  1
  P  P0  1  0.96203100  0.25051000  0.50439300  1
  P  P1  1  0.53420700  0.75118200  0.99609100  1
  P  P2  1  0.03819900  0.75047900  0.49684400  1
  P  P3  1  0.89402300  0.10768100  0.14459100  1
  P  P4  1  0.46312200  0.24858600  0.00048600  1
  P  P5  1  0.10859700  0.60828700  0.14795000  1
  P  P6  1  0.39134100  0.11054800  0.35315700  1
  P  P7  1  0.10642500  0.88778100  0.85647400  1
  P  P8  1  0.60264400  0.60827400  0.35558800  1
  P  P9  1  0.39700400  0.39234500  0.64640700  1
  P  P10  1  0.60743200  0.89002400  0.64597000  1
  P  P11  1  0.89208200  0.39348400  0.85292300  1
  O  O0  1  0.66014800  0.01254400  0.73419700  1
  O  O1  1  0.55740600  0.33505800  0.08837100  1
  O  O2  1  0.42806700  0.65725500  0.91520600  1
  O  O3  1  0.81489600  0.44289600  0.95985700  1
  O  O4  1  0.38757600  0.35374200  0.91379700  1
  O  O5  1  0.88312600  0.15545300  0.41152800  1
  O  O6  1  0.11770000  0.84387000  0.58966400  1
  O  O7  1  0.31698900  0.04719300  0.45813100  1
  O  O8  1  0.85183400  0.27329400  0.17865100  1
  O  O9  1  0.35577900  0.43263500  0.52604100  1
  O  O10  1  0.07456000  0.39736300  0.86334400  1
  O  O11  1  0.61931300  0.65341500  0.08241900  1
  O  O12  1  0.34461300  0.99379000  0.25774500  1
  O  O13  1  0.18413500  0.54831900  0.04080700  1
  O  O14  1  0.32856500  0.16409400  0.06268700  1
  O  O15  1  0.57153500  0.12292900  0.35735000  1
  O  O16  1  0.15131300  0.48763100  0.23789800  1
  O  O17  1  0.92646900  0.91158900  0.84005700  1
  O  O18  1  0.80653200  0.98939400  0.21710900  1
  O  O19  1  0.92804500  0.61949000  0.13917700  1
  O  O20  1  0.17648700  0.76733400  0.18260800  1
  O  O21  1  0.93947600  0.83662100  0.41365400  1
  O  O22  1  0.37258000  0.22232400  0.67055700  1
  O  O23  1  0.57675100  0.42373200  0.66547800  1
  O  O24  1  0.69372000  0.49311700  0.28326800  1
  O  O25  1  0.63986100  0.58373600  0.47843200  1
  O  O26  1  0.83594300  0.23088400  0.81610300  1
  O  O27  1  0.93538800  0.62750300  0.55878100  1
  O  O28  1  0.84765600  0.51206500  0.76273100  1
  O  O29  1  0.05880600  0.16097500  0.58709800  1
  O  O30  1  0.20225200  0.99277200  0.78274100  1
  O  O31  1  0.82799200  0.33404300  0.56585900  1
  O  O32  1  0.67330500  0.94573600  0.53597000  1
  O  O33  1  0.14411000  0.92059200  0.98095900  1
  O  O34  1  0.56538100  0.13336200  0.93389500  1
  O  O35  1  0.42256600  0.58345300  0.33637100  1
  O  O36  1  0.30646700  0.50424300  0.72384900  1
  O  O37  1  0.13791900  0.71549600  0.83151300  1
  O  O38  1  0.07385100  0.09372100  0.16199900  1
  O  O39  1  0.43992500  0.87255600  0.05861300  1
  O  O40  1  0.63850900  0.77467900  0.32032600  1
  O  O41  1  0.66045300  0.83238400  0.92425800  1
  O  O42  1  0.32387300  0.26951800  0.31967500  1
  O  O43  1  0.67956300  0.73375600  0.68169100  1
  O  O44  1  0.16874900  0.66703000  0.43190500  1
  O  O45  1  0.42745000  0.87611500  0.64343300  1
  O  O46  1  0.06428900  0.37231900  0.44161100  1
  O  O47  1  0.85464300  0.07729500  0.02172500  1
loop_
_geom_bond_atom_site_label_1
_geom_bond_atom_site_label_2
_geom_bond_distance
_geom_bond_site_symmetry_2
Li0 O0 1.966071 1_555
Li0 O31 2.008532 1_555
Li0 O26 2.053470 1_555
Li0 O23 2.061004 1_555
Li1 O16 1.973821 1_555
Li1 O38 1.995341 1_555
Li1 O42 2.016780 1_555
Li1 O14 2.034685 1_555
Li2 O28 1.973339 1_555
Li2 O43 1.984271 1_555
Li2 O41 1.990650 1_555
Li2 O17 2.009853 1_555
Li3 O18 1.926449 1_555
Li3 O19 2.010622 1_555
Li3 O11 2.024615 1_555
Li3 O40 2.028246 1_555
Li4 O24 1.940557 1_555
Li4 O15 1.980423 1_555
Li4 O5 2.012436 1_555
Li4 O8 2.021228 1_555
Li5 O20 1.999290 1_555
Li5 O44 2.008959 1_555
Li5 O12 2.021755 1_555
Li5 O35 2.059724 1_555
Li6 O36 1.981014 1_555
Li6 O45 1.990202 1_555
Li6 O6 2.025582 1_555
Li6 O37 2.082873 1_555
O0 P10 1.566628 1_545
O0 V1 1.973785 1_555
O1 P4 1.521437 1_555
O1 V3 1.978898 1_555
O2 P1 1.553918 1_555
O2 V7 1.916437 1_555
O3 P11 1.514884 1_555
O3 V3 1.982662 1_556
O4 P4 1.538462 1_556
O4 V7 1.919201 1_555
O5 P0 1.539914 1_555
O5 V6 2.014309 1_545
O6 P2 1.534060 1_555
O6 V2 2.049622 1_565
O7 P6 1.523395 1_555
O7 V2 2.037326 1_555
O8 P3 1.546083 1_555
O8 V3 2.031259 1_555
O9 P9 1.537080 1_555
O9 V4 1.926649 1_555
O10 P11 1.561294 1_455
O10 V7 1.886294 1_555
O11 P1 1.534520 1_554
O11 V3 2.040649 1_555
O12 P6 1.581124 1_565
O12 V5 1.946376 1_555
O13 P5 1.539709 1_555
O13 V7 1.964380 1_554
O14 P4 1.555642 1_555
O14 V5 1.954558 1_545
O15 P6 1.540552 1_555
O15 V6 2.099764 1_545
O16 P5 1.560194 1_555
O16 V4 1.997454 1_555
O17 P7 1.563188 1_655
O17 V1 1.972264 1_565
O18 P3 1.544669 1_565
O18 V6 2.082640 1_555
O19 P5 1.547607 1_655
O19 V3 2.071086 1_555
O20 P5 1.552424 1_555
O20 V5 2.018709 1_555
O21 P2 1.514960 1_655
O21 V6 1.994047 1_555
O22 P9 1.524576 1_555
O22 V2 2.006506 1_555
O23 P9 1.570741 1_555
O23 V0 1.932846 1_555
O24 P8 1.545442 1_555
O24 V3 2.088382 1_555
O25 P8 1.532137 1_555
O25 V0 1.925140 1_555
O26 P11 1.554250 1_555
O26 V1 2.006300 1_555
O27 P2 1.572372 1_655
O27 V0 1.834906 1_555
O28 P11 1.553574 1_555
O28 V0 1.996802 1_555
O29 P0 1.517112 1_455
O29 V2 1.997451 1_555
O30 P7 1.515822 1_555
O30 V2 2.051287 1_565
O31 P0 1.551920 1_555
O31 V0 2.005706 1_555
O32 P10 1.524188 1_555
O32 V6 1.963448 1_555
O33 P7 1.560475 1_555
O33 V5 1.857580 1_556
O34 P4 1.560017 1_556
O34 V1 1.865114 1_555
O35 P8 1.565412 1_555
O35 V4 1.947917 1_555
O36 P9 1.560894 1_555
O36 V7 2.027984 1_555
O37 P7 1.557061 1_555
O37 V7 2.053326 1_555
O38 P3 1.553651 1_455
O38 V5 1.999107 1_545
O39 P1 1.533723 1_554
O39 V5 1.909876 1_555
O40 P8 1.542035 1_555
O40 V6 2.061256 1_555
O41 P1 1.553050 1_555
O41 V1 2.007758 1_565
O42 P6 1.560567 1_555
O42 V4 1.987122 1_555
O43 P10 1.562490 1_555
O43 V0 1.976576 1_555
O44 P2 1.550389 1_555
O44 V4 1.984535 1_555
O45 P10 1.539169 1_555
O45 V2 2.101326 1_565
O46 P0 1.567836 1_455
O46 V4 1.841593 1_555
O47 P3 1.541039 1_555
O47 V1 1.911843 1_554
