# generated using pymatgen
data_Li2V(CO3)2
_symmetry_space_group_name_H-M   'P 1'
_cell_length_a   10.73972264
_cell_length_b   9.04890482
_cell_length_c   8.98384868
_cell_angle_alpha   73.10519680
_cell_angle_beta   53.72620817
_cell_angle_gamma   53.16859504
_symmetry_Int_Tables_number   1
_chemical_formula_structural   Li2V(CO3)2
_chemical_formula_sum   'Li8 V4 C8 O24'
_cell_volume   560.59885739
_cell_formula_units_Z   4
loop_
 _symmetry_equiv_pos_site_id
 _symmetry_equiv_pos_as_xyz
  1  'x, y, z'
loop_
 _atom_site_type_symbol
 _atom_site_label
 _atom_site_symmetry_multiplicity
 _atom_site_fract_x
 _atom_site_fract_y
 _atom_site_fract_z
 _atom_site_occupancy
  Li  Li0  1  0.44605600  0.87820200  0.37263800  1
  Li  Li1  1  0.37179800  0.80394400  0.94689600  1
  Li  Li2  1  0.87736200  0.94689600  0.80394400  1
  Li  Li3  1  0.89062200  0.83115800  0.40627700  1
  Li  Li4  1  0.84372300  0.37805700  0.35937800  1
  Li  Li5  1  0.30310400  0.37263800  0.87820200  1
  Li  Li6  1  0.87194300  0.40627700  0.83115800  1
  Li  Li7  1  0.41884200  0.35937800  0.37805700  1
  V  V0  1  0.87444400  0.65790700  0.09329700  1
  V  V1  1  0.15670300  0.87564800  0.37555600  1
  V  V2  1  0.37435200  0.09329700  0.65790700  1
  V  V3  1  0.59209300  0.37555600  0.87564800  1
  C  C0  1  0.60168300  0.65232200  0.56098700  1
  C  C1  1  0.15469100  0.67701100  0.10579900  1
  C  C2  1  0.59767800  0.64831700  0.06499200  1
  C  C3  1  0.18500800  0.56098700  0.65232200  1
  C  C4  1  0.06249900  0.10579900  0.67701100  1
  C  C5  1  0.57298900  0.09530900  0.18750100  1
  C  C6  1  0.14420100  0.18750100  0.09530900  1
  C  C7  1  0.68901300  0.06499200  0.64831700  1
  O  O0  1  0.29970700  0.55116200  0.96769700  1
  O  O1  1  0.66501900  0.66174600  0.38346500  1
  O  O2  1  0.76304100  0.58002800  0.02034200  1
  O  O3  1  0.47536800  0.79943500  0.67601800  1
  O  O4  1  0.99015700  0.71467000  0.18158500  1
  O  O5  1  0.58825400  0.58498100  0.96023000  1
  O  O6  1  0.22965800  0.61341100  0.48695900  1
  O  O7  1  0.04917800  0.67601800  0.79943500  1
  O  O8  1  0.45056500  0.77463200  0.20082200  1
  O  O9  1  0.18143400  0.96769700  0.55116200  1
  O  O10  1  0.16821000  0.77269100  0.17298000  1
  O  O11  1  0.69883800  0.95029300  0.06856600  1
  O  O12  1  0.88611900  0.17298000  0.77269100  1
  O  O13  1  0.47730900  0.08179000  0.36388100  1
  O  O14  1  0.86653500  0.96023000  0.58498100  1
  O  O15  1  0.28230300  0.06856600  0.95029300  1
  O  O16  1  0.06841500  0.13641200  0.25984300  1
  O  O17  1  0.53533000  0.25984300  0.13641200  1
  O  O18  1  0.63658900  0.02034200  0.58002800  1
  O  O19  1  0.07702000  0.36388100  0.08179000  1
  O  O20  1  0.57398200  0.20082200  0.77463200  1
  O  O21  1  0.11358800  0.18158500  0.71467000  1
  O  O22  1  0.66997200  0.48695900  0.61341100  1
  O  O23  1  0.28977000  0.38346500  0.66174600  1
loop_
_geom_bond_atom_site_label_1
_geom_bond_atom_site_label_2
_geom_bond_distance
_geom_bond_site_symmetry_2
Li0 O9 1.976609 1_555
Li0 O8 1.990288 1_555
Li0 O1 2.003389 1_555
Li0 O13 2.034354 1_565
Li1 O15 1.976609 1_565
Li1 O3 1.990296 1_555
Li1 O5 2.003389 1_555
Li1 O10 2.034354 1_556
Li2 O11 1.976609 1_556
Li2 O7 1.990294 1_655
Li2 O14 2.003389 1_555
Li2 O12 2.034354 1_565
Li3 O4 1.913374 1_555
Li3 O18 1.929995 1_565
Li3 O14 2.060271 1_555
Li3 O10 2.218171 1_655
Li4 O16 1.913374 1_655
Li4 O22 1.929995 1_555
Li4 O1 2.060271 1_555
Li4 O19 2.218171 1_655
Li5 O0 1.976609 1_555
Li5 O20 1.990296 1_555
Li5 O23 2.003389 1_555
Li5 O19 2.034354 1_556
Li6 O21 1.913374 1_655
Li6 O2 1.929995 1_556
Li6 O5 2.060271 1_555
Li6 O12 2.218171 1_555
Li7 O17 1.913374 1_555
Li7 O6 1.929995 1_555
Li7 O23 2.060271 1_555
Li7 O13 2.218171 1_555
C0 O3 1.286851 1_555
C0 O22 1.296972 1_555
C0 O1 1.311596 1_555
C1 O0 1.292327 1_554
C1 O4 1.300555 1_455
C1 O10 1.301183 1_555
C2 O8 1.286855 1_555
C2 O2 1.296972 1_555
C2 O5 1.311596 1_554
C3 O7 1.286851 1_555
C3 O6 1.296972 1_555
C3 O23 1.311596 1_555
C4 O9 1.292327 1_545
C4 O21 1.300555 1_555
C4 O12 1.301183 1_455
C5 O11 1.292327 1_545
C5 O17 1.300555 1_555
C5 O13 1.301183 1_555
C6 O15 1.292327 1_554
C6 O16 1.300555 1_555
C6 O19 1.301183 1_555
C7 O20 1.286857 1_555
C7 O18 1.296972 1_555
C7 O14 1.311596 1_545
O0 V3 2.185877 1_555
O1 V0 2.208306 1_555
O2 V0 2.136562 1_555
O3 V2 2.184742 1_565
O4 V0 2.146102 1_555
O5 V3 2.208306 1_555
O6 V1 2.136562 1_555
O7 V0 2.184740 1_456
O8 V1 2.184742 1_555
O9 V1 2.185877 1_555
O10 V1 2.185552 1_555
O11 V0 2.185877 1_555
O12 V3 2.185552 1_555
O13 V2 2.185552 1_555
O14 V1 2.208306 1_655
O15 V2 2.185877 1_555
O16 V1 2.146102 1_545
O17 V3 2.146102 1_554
O18 V2 2.136562 1_555
O19 V0 2.185552 1_455
O20 V3 2.184734 1_555
O21 V2 2.146102 1_555
O22 V3 2.136562 1_555
O23 V2 2.208306 1_555
