# generated using pymatgen
data_Co3OF5
_symmetry_space_group_name_H-M   'P 1'
_cell_length_a   5.69962069
_cell_length_b   5.69962069
_cell_length_c   7.31409872
_cell_angle_alpha   72.62742912
_cell_angle_beta   72.62742912
_cell_angle_gamma   73.70314768
_symmetry_Int_Tables_number   1
_chemical_formula_structural   Co3OF5
_chemical_formula_sum   'Co6 O2 F10'
_cell_volume   211.58527904
_cell_formula_units_Z   2
loop_
 _symmetry_equiv_pos_site_id
 _symmetry_equiv_pos_as_xyz
  1  'x, y, z'
loop_
 _atom_site_type_symbol
 _atom_site_label
 _atom_site_symmetry_multiplicity
 _atom_site_fract_x
 _atom_site_fract_y
 _atom_site_fract_z
 _atom_site_occupancy
  Co  Co0  1  0.50000000  0.50000000  0.00000000  1
  Co  Co1  1  0.50000000  0.50000000  0.50000000  1
  Co  Co2  1  0.14342300  0.14342300  0.85470300  1
  Co  Co3  1  0.16407400  0.16407400  0.32838600  1
  Co  Co4  1  0.83592600  0.83592600  0.67161400  1
  Co  Co5  1  0.85657700  0.85657700  0.14529700  1
  O  O0  1  0.06865100  0.06865100  0.13522500  1
  O  O1  1  0.93134900  0.93134900  0.86477500  1
  F  F0  1  0.79961500  0.20038500  0.50000000  1
  F  F1  1  0.46423700  0.86074100  0.82785200  1
  F  F2  1  0.38647000  0.38647000  0.80385500  1
  F  F3  1  0.74023400  0.74023400  0.45654100  1
  F  F4  1  0.25976600  0.25976600  0.54345900  1
  F  F5  1  0.61353000  0.61353000  0.19614500  1
  F  F6  1  0.20038500  0.79961500  0.50000000  1
  F  F7  1  0.86074100  0.46423700  0.82785200  1
  F  F8  1  0.53576300  0.13925900  0.17214800  1
  F  F9  1  0.13925900  0.53576300  0.17214800  1
loop_
_geom_bond_atom_site_label_1
_geom_bond_atom_site_label_2
_geom_bond_distance
_geom_bond_site_symmetry_2
Co0 F9 2.055840 1_555
Co0 F8 2.055840 1_555
Co0 F1 2.055840 1_554
Co0 F7 2.055840 1_554
Co0 F5 2.058950 1_555
Co0 F2 2.058950 1_554
Co1 F6 2.048356 1_555
Co1 F0 2.048356 1_555
Co1 F2 2.072205 1_555
Co1 F5 2.072205 1_555
Co1 F3 2.093581 1_555
Co1 F4 2.093581 1_555
Co2 O0 1.905410 1_556
Co2 O1 1.908186 1_445
Co2 F7 2.073413 1_455
Co2 F1 2.073413 1_545
Co2 F2 2.106649 1_555
Co2 F4 2.122643 1_555
Co3 O0 1.916069 1_555
Co3 F4 2.064247 1_555
Co3 F0 2.071290 1_455
Co3 F6 2.071290 1_545
Co3 F8 2.072807 1_555
Co3 F9 2.072807 1_555
Co4 O1 1.916069 1_555
Co4 F3 2.064247 1_555
Co4 F6 2.071290 1_655
Co4 F0 2.071290 1_565
Co4 F7 2.072807 1_555
Co4 F1 2.072807 1_555
Co5 O1 1.905410 1_554
Co5 O0 1.908186 1_665
Co5 F9 2.073413 1_655
Co5 F8 2.073413 1_565
Co5 F5 2.106649 1_555
Co5 F3 2.122643 1_555
F0 F3 2.855576 1_545
F0 F4 2.855576 1_655
F1 F4 2.827078 1_565
F1 F2 2.862343 1_565
F1 F3 2.877196 1_555
F1 O1 2.889450 1_455
F1 F5 2.897397 1_556
F2 F4 2.570173 1_555
F2 F7 2.862343 1_455
F2 F8 2.897397 1_556
F2 F9 2.897397 1_556
F3 F5 2.570173 1_555
F3 F9 2.827078 1_655
F3 F8 2.827078 1_565
F3 F6 2.855576 1_655
F3 F7 2.877196 1_555
F4 F7 2.827078 1_455
F4 F6 2.855576 1_545
F4 F8 2.877196 1_555
F4 F9 2.877196 1_555
F5 F9 2.862343 1_655
F5 F8 2.862343 1_565
F5 F7 2.897397 1_554
F7 O1 2.889450 1_545
F8 O0 2.889450 1_655
F9 O0 2.889450 1_565
