# generated using pymatgen
data_NbFeB
_symmetry_space_group_name_H-M   'P 1'
_cell_length_a   7.37005351
_cell_length_b   7.37005351
_cell_length_c   5.91607200
_cell_angle_alpha   90.00000000
_cell_angle_beta   90.00000000
_cell_angle_gamma   120.00001353
_symmetry_Int_Tables_number   1
_chemical_formula_structural   NbFeB
_chemical_formula_sum   'Nb8 Fe8 B8'
_cell_volume   278.29493687
_cell_formula_units_Z   8
loop_
 _symmetry_equiv_pos_site_id
 _symmetry_equiv_pos_as_xyz
  1  'x, y, z'
loop_
 _atom_site_type_symbol
 _atom_site_label
 _atom_site_symmetry_multiplicity
 _atom_site_fract_x
 _atom_site_fract_y
 _atom_site_fract_z
 _atom_site_occupancy
  Nb  Nb0_0  1  0.16666650  0.33333350  0.00000000  1
  Nb  Nb0_1  1  0.16666650  0.33333350  0.50000000  1
  Nb  Nb0_2  1  0.16666650  0.83333350  0.00000000  1
  Nb  Nb0_3  1  0.16666650  0.83333350  0.50000000  1
  Nb  Nb0_4  1  0.66666650  0.33333350  0.00000000  1
  Nb  Nb0_5  1  0.66666650  0.33333350  0.50000000  1
  Nb  Nb0_6  1  0.66666650  0.83333350  0.00000000  1
  Nb  Nb0_7  1  0.66666650  0.83333350  0.50000000  1
  Fe  Fe0_0  1  0.33333350  0.16666650  0.25000000  1
  Fe  Fe0_1  1  0.33333350  0.16666650  0.75000000  1
  Fe  Fe0_2  1  0.33333350  0.66666650  0.25000000  1
  Fe  Fe0_3  1  0.33333350  0.66666650  0.75000000  1
  Fe  Fe0_4  1  0.83333350  0.16666650  0.25000000  1
  Fe  Fe0_5  1  0.83333350  0.16666650  0.75000000  1
  Fe  Fe0_6  1  0.83333350  0.66666650  0.25000000  1
  Fe  Fe0_7  1  0.83333350  0.66666650  0.75000000  1
  B  B0_0  1  0.00000000  0.00000000  0.25000000  1
  B  B0_1  1  0.00000000  0.00000000  0.75000000  1
  B  B0_2  1  0.00000000  0.50000000  0.25000000  1
  B  B0_3  1  0.00000000  0.50000000  0.75000000  1
  B  B0_4  1  0.50000000  0.00000000  0.25000000  1
  B  B0_5  1  0.50000000  0.00000000  0.75000000  1
  B  B0_6  1  0.50000000  0.50000000  0.25000000  1
  B  B0_7  1  0.50000000  0.50000000  0.75000000  1
loop_
_geom_bond_atom_site_label_1
_geom_bond_atom_site_label_2
_geom_bond_distance
_geom_bond_site_symmetry_2
Nb0_0 Nb0_1 2.958036 1_555
Nb0_0 Nb0_1 2.958036 1_554
Nb0_2 Nb0_3 2.958036 1_555
Nb0_2 Nb0_3 2.958036 1_554
Nb0_4 Nb0_5 2.958036 1_555
Nb0_4 Nb0_5 2.958036 1_554
Nb0_6 Nb0_7 2.958036 1_555
Nb0_6 Nb0_7 2.958036 1_554
Fe0_0 Nb0_4 2.591131 1_555
Fe0_0 Nb0_5 2.591131 1_555
Fe0_0 Nb0_2 2.591131 1_545
Fe0_0 Nb0_3 2.591131 1_545
Fe0_0 Nb0_1 2.591136 1_555
Fe0_0 Nb0_0 2.591136 1_555
Fe0_0 Fe0_1 2.958036 1_555
Fe0_0 Fe0_1 2.958036 1_554
Fe0_1 Nb0_4 2.591131 1_556
Fe0_1 Nb0_5 2.591131 1_555
Fe0_1 Nb0_2 2.591131 1_546
Fe0_1 Nb0_3 2.591131 1_545
Fe0_1 Nb0_1 2.591136 1_555
Fe0_1 Nb0_0 2.591136 1_556
Fe0_2 Nb0_0 2.591131 1_555
Fe0_2 Nb0_1 2.591131 1_555
Fe0_2 Nb0_7 2.591131 1_555
Fe0_2 Nb0_6 2.591131 1_555
Fe0_2 Nb0_3 2.591136 1_555
Fe0_2 Nb0_2 2.591136 1_555
Fe0_2 Fe0_3 2.958036 1_554
Fe0_2 Fe0_3 2.958036 1_555
Fe0_3 Nb0_0 2.591131 1_556
Fe0_3 Nb0_1 2.591131 1_555
Fe0_3 Nb0_6 2.591131 1_556
Fe0_3 Nb0_7 2.591131 1_555
Fe0_3 Nb0_3 2.591136 1_555
Fe0_3 Nb0_2 2.591136 1_556
Fe0_4 Nb0_7 2.591131 1_545
Fe0_4 Nb0_6 2.591131 1_545
Fe0_4 Nb0_1 2.591131 1_655
Fe0_4 Nb0_0 2.591131 1_655
Fe0_4 Nb0_5 2.591136 1_555
Fe0_4 Nb0_4 2.591136 1_555
Fe0_4 Fe0_5 2.958036 1_555
Fe0_4 Fe0_5 2.958036 1_554
Fe0_5 Nb0_6 2.591131 1_546
Fe0_5 Nb0_7 2.591131 1_545
Fe0_5 Nb0_0 2.591131 1_656
Fe0_5 Nb0_1 2.591131 1_655
Fe0_5 Nb0_5 2.591136 1_555
Fe0_5 Nb0_4 2.591136 1_556
Fe0_6 Nb0_3 2.591131 1_655
Fe0_6 Nb0_2 2.591131 1_655
Fe0_6 Nb0_4 2.591131 1_555
Fe0_6 Nb0_5 2.591131 1_555
Fe0_6 Nb0_6 2.591136 1_555
Fe0_6 Nb0_7 2.591136 1_555
Fe0_6 Fe0_7 2.958036 1_555
Fe0_6 Fe0_7 2.958036 1_554
Fe0_7 Nb0_2 2.591131 1_656
Fe0_7 Nb0_3 2.591131 1_655
Fe0_7 Nb0_4 2.591131 1_556
Fe0_7 Nb0_5 2.591131 1_555
Fe0_7 Nb0_6 2.591136 1_556
Fe0_7 Nb0_7 2.591136 1_555
B0_0 Fe0_4 2.127549 1_455
B0_0 Fe0_6 2.127552 1_445
B0_0 Fe0_0 2.127552 1_555
B0_0 Nb0_2 2.591131 1_545
B0_0 Nb0_3 2.591131 1_545
B0_0 Nb0_7 2.591133 1_445
B0_0 Nb0_6 2.591133 1_445
B0_0 Nb0_0 2.591133 1_555
B0_0 Nb0_1 2.591133 1_555
B0_0 B0_1 2.958036 1_555
B0_0 B0_1 2.958036 1_554
B0_1 Fe0_5 2.127549 1_455
B0_1 Fe0_7 2.127552 1_445
B0_1 Fe0_1 2.127552 1_555
B0_1 Nb0_2 2.591131 1_546
B0_1 Nb0_3 2.591131 1_545
B0_1 Nb0_7 2.591133 1_445
B0_1 Nb0_6 2.591133 1_446
B0_1 Nb0_0 2.591133 1_556
B0_1 Nb0_1 2.591133 1_555
B0_2 Fe0_6 2.127549 1_455
B0_2 Fe0_2 2.127552 1_555
B0_2 Fe0_4 2.127552 1_455
B0_2 Nb0_1 2.591131 1_555
B0_2 Nb0_0 2.591131 1_555
B0_2 Nb0_4 2.591133 1_455
B0_2 Nb0_3 2.591133 1_555
B0_2 Nb0_5 2.591133 1_455
B0_2 Nb0_2 2.591133 1_555
B0_2 B0_3 2.958036 1_555
B0_2 B0_3 2.958036 1_554
B0_3 Fe0_7 2.127549 1_455
B0_3 Fe0_3 2.127552 1_555
B0_3 Fe0_5 2.127552 1_455
B0_3 Nb0_1 2.591131 1_555
B0_3 Nb0_0 2.591131 1_556
B0_3 Nb0_2 2.591133 1_556
B0_3 Nb0_4 2.591133 1_456
B0_3 Nb0_3 2.591133 1_555
B0_3 Nb0_5 2.591133 1_455
B0_4 Fe0_0 2.127549 1_555
B0_4 Fe0_2 2.127552 1_545
B0_4 Fe0_4 2.127552 1_555
B0_4 Nb0_7 2.591131 1_545
B0_4 Nb0_6 2.591131 1_545
B0_4 Nb0_5 2.591133 1_555
B0_4 Nb0_2 2.591133 1_545
B0_4 Nb0_3 2.591133 1_545
B0_4 Nb0_4 2.591133 1_555
B0_4 B0_5 2.958036 1_555
B0_4 B0_5 2.958036 1_554
B0_5 Fe0_1 2.127549 1_555
B0_5 Fe0_3 2.127552 1_545
B0_5 Fe0_5 2.127552 1_555
B0_5 Nb0_7 2.591131 1_545
B0_5 Nb0_6 2.591131 1_546
B0_5 Nb0_5 2.591133 1_555
B0_5 Nb0_2 2.591133 1_546
B0_5 Nb0_3 2.591133 1_545
B0_5 Nb0_4 2.591133 1_556
B0_6 Fe0_2 2.127549 1_555
B0_6 Fe0_0 2.127552 1_555
B0_6 Fe0_6 2.127552 1_555
B0_6 Nb0_4 2.591131 1_555
B0_6 Nb0_5 2.591131 1_555
B0_6 Nb0_0 2.591133 1_555
B0_6 Nb0_1 2.591133 1_555
B0_6 Nb0_7 2.591133 1_555
B0_6 Nb0_6 2.591133 1_555
B0_6 B0_7 2.958036 1_555
B0_6 B0_7 2.958036 1_554
B0_7 Fe0_3 2.127549 1_555
B0_7 Fe0_1 2.127552 1_555
B0_7 Fe0_7 2.127552 1_555
B0_7 Nb0_4 2.591131 1_556
B0_7 Nb0_5 2.591131 1_555
B0_7 Nb0_0 2.591133 1_556
B0_7 Nb0_1 2.591133 1_555
B0_7 Nb0_6 2.591133 1_556
B0_7 Nb0_7 2.591133 1_555
