# generated using pymatgen
data_LiCuF3
_symmetry_space_group_name_H-M   'P 1'
_cell_length_a   4.99932600
_cell_length_b   5.26451448
_cell_length_c   8.60058799
_cell_angle_alpha   89.96622443
_cell_angle_beta   89.73426473
_cell_angle_gamma   89.97557767
_symmetry_Int_Tables_number   1
_chemical_formula_structural   LiCuF3
_chemical_formula_sum   'Li4 Cu4 F12'
_cell_volume   226.35658837
_cell_formula_units_Z   4
loop_
 _symmetry_equiv_pos_site_id
 _symmetry_equiv_pos_as_xyz
  1  'x, y, z'
loop_
 _atom_site_type_symbol
 _atom_site_label
 _atom_site_symmetry_multiplicity
 _atom_site_fract_x
 _atom_site_fract_y
 _atom_site_fract_z
 _atom_site_occupancy
  Li  Li0  1  0.49852400  0.99801100  0.31215100  1
  Li  Li1  1  0.99991900  0.00283600  0.33081500  1
  Li  Li2  1  0.49160700  0.51627600  0.83216700  1
  Li  Li3  1  0.99624100  0.49730600  0.80174000  1
  Cu  Cu0  1  0.00130600  0.99885500  0.65146200  1
  Cu  Cu1  1  0.00169900  0.99954100  0.00475200  1
  Cu  Cu2  1  0.50098200  0.49855500  0.50403900  1
  Cu  Cu3  1  0.50149100  0.49808600  0.15131000  1
  F  F0  1  0.22242500  0.86032700  0.16703000  1
  F  F1  1  0.22188300  0.85519000  0.49044900  1
  F  F2  1  0.18225100  0.82057800  0.82716200  1
  F  F3  1  0.68189400  0.67412900  0.32818300  1
  F  F4  1  0.71965200  0.64896100  0.99145200  1
  F  F5  1  0.72230800  0.64073300  0.66561700  1
  F  F6  1  0.27823600  0.35856800  0.66625100  1
  F  F7  1  0.28249500  0.35150700  0.99176800  1
  F  F8  1  0.31854300  0.32427100  0.32845200  1
  F  F9  1  0.82220500  0.17210800  0.82777800  1
  F  F10  1  0.77959000  0.14468800  0.49219700  1
  F  F11  1  0.77669500  0.13967700  0.16736800  1
loop_
_geom_bond_atom_site_label_1
_geom_bond_atom_site_label_2
_geom_bond_distance
_geom_bond_site_symmetry_2
Cu0 F1 1.921485 1_555
Cu0 F10 1.925211 1_465
Cu0 F9 1.980278 1_465
Cu0 F2 1.998235 1_555
Cu0 F5 2.348444 1_455
Cu0 F6 2.350154 1_565
Cu1 F0 1.927469 1_555
Cu1 F11 1.936900 1_465
Cu1 F9 1.989384 1_464
Cu1 F2 2.005861 1_554
Cu1 F4 2.326293 1_454
Cu1 F7 2.327438 1_564
Cu2 F6 1.927332 1_555
Cu2 F5 1.931817 1_555
Cu2 F3 1.986526 1_555
Cu2 F8 1.992335 1_555
Cu2 F10 2.327583 1_555
Cu2 F1 2.341924 1_555
Cu3 F7 1.921677 1_554
Cu3 F4 1.922560 1_554
Cu3 F8 1.995274 1_555
Cu3 F3 2.000380 1_555
Cu3 F11 2.339110 1_555
Cu3 F0 2.365951 1_555
F0 Li1 1.941787 1_465
F0 Li0 2.001590 1_555
F1 Li1 1.932009 1_465
F1 Li0 2.193045 1_555
F2 Li3 1.952588 1_455
F2 Li2 2.226785 1_555
F3 Li0 1.940687 1_555
F3 Li1 2.350665 1_565
F4 Li2 1.918525 1_555
F4 Li3 2.278453 1_555
F5 Li2 1.948223 1_555
F5 Li3 1.956831 1_555
F6 Li3 1.965639 1_455
F6 Li2 1.969702 1_555
F7 Li2 1.927588 1_555
F7 Li3 2.308142 1_455
F8 Li0 1.943506 1_545
F8 Li1 2.324490 1_455
F9 Li3 1.933170 1_555
F9 Li2 2.452124 1_555
F10 Li1 1.919324 1_555
F10 Li0 2.234068 1_545
F11 Li1 1.937303 1_555
F11 Li0 2.006109 1_545
