# generated using pymatgen
data_LiFeF4
_symmetry_space_group_name_H-M   'P 1'
_cell_length_a   6.67619671
_cell_length_b   6.67619671
_cell_length_c   6.67619671
_cell_angle_alpha   136.59046913
_cell_angle_beta   136.59046913
_cell_angle_gamma   63.06876976
_symmetry_Int_Tables_number   1
_chemical_formula_structural   LiFeF4
_chemical_formula_sum   'Li2 Fe2 F8'
_cell_volume   138.75338624
_cell_formula_units_Z   2
loop_
 _symmetry_equiv_pos_site_id
 _symmetry_equiv_pos_as_xyz
  1  'x, y, z'
loop_
 _atom_site_type_symbol
 _atom_site_label
 _atom_site_symmetry_multiplicity
 _atom_site_fract_x
 _atom_site_fract_y
 _atom_site_fract_z
 _atom_site_occupancy
  Li  Li0  1  0.75000000  0.25000000  0.50000000  1
  Li  Li1  1  0.00000000  0.00000000  0.00000000  1
  Fe  Fe0  1  0.50000000  0.50000000  0.00000000  1
  Fe  Fe1  1  0.25000000  0.75000000  0.50000000  1
  F  F0  1  0.20123700  0.69176000  0.03168000  1
  F  F1  1  0.44176000  0.91008000  0.99052300  1
  F  F2  1  0.91955700  0.45123700  0.00947700  1
  F  F3  1  0.66008000  0.16955700  0.96832000  1
  F  F4  1  0.08992000  0.08044300  0.53168000  1
  F  F5  1  0.83044300  0.79876300  0.49052300  1
  F  F6  1  0.30824000  0.33992000  0.50947700  1
  F  F7  1  0.54876300  0.55824000  0.46832000  1
loop_
_geom_bond_atom_site_label_1
_geom_bond_atom_site_label_2
_geom_bond_distance
_geom_bond_site_symmetry_2
F0 Fe0 1.889065 1_555
F0 Li1 1.949270 1_565
F0 F7 2.598214 1_555
F0 Fe1 2.627214 1_555
F1 Fe1 1.889065 1_555
F1 Li0 1.949270 1_566
F1 F6 2.598214 1_555
F1 Fe0 2.627214 1_556
F2 Fe1 1.889065 1_655
F2 Li0 1.949270 1_554
F2 F5 2.598214 1_555
F2 Fe0 2.627214 1_555
F3 Fe0 1.889065 1_556
F3 Li1 1.949270 1_656
F3 F4 2.598214 1_555
F3 Fe1 2.627214 1_545
F4 Fe1 1.889065 1_545
F4 Li0 1.949270 1_455
F4 Fe0 2.627214 1_556
F5 Fe0 1.889065 1_555
F5 Li1 1.949270 1_666
F5 Fe1 2.627214 1_655
F6 Fe0 1.889065 1_556
F6 Li1 1.949270 1_555
F6 Fe1 2.627214 1_555
F7 Fe1 1.889065 1_555
F7 Li0 1.949270 1_555
F7 Fe0 2.627214 1_555
