# generated using pymatgen
data_Li3Ti2CoO6
_symmetry_space_group_name_H-M   'P 1'
_cell_length_a   5.92308872
_cell_length_b   6.65001997
_cell_length_c   6.72571188
_cell_angle_alpha   81.86776575
_cell_angle_beta   116.12707089
_cell_angle_gamma   77.13287525
_symmetry_Int_Tables_number   1
_chemical_formula_structural   Li3Ti2CoO6
_chemical_formula_sum   'Li6 Ti4 Co2 O12'
_cell_volume   223.02377971
_cell_formula_units_Z   2
loop_
 _symmetry_equiv_pos_site_id
 _symmetry_equiv_pos_as_xyz
  1  'x, y, z'
loop_
 _atom_site_type_symbol
 _atom_site_label
 _atom_site_symmetry_multiplicity
 _atom_site_fract_x
 _atom_site_fract_y
 _atom_site_fract_z
 _atom_site_occupancy
  Li  Li0  1  0.75001900  0.33326700  0.16668100  1
  Li  Li1  1  0.25001800  0.33326800  0.16667700  1
  Li  Li2  1  0.74434600  0.00982500  0.49359400  1
  Li  Li3  1  0.24434600  0.00982300  0.49359500  1
  Li  Li4  1  0.75567400  0.65683200  0.83974800  1
  Li  Li5  1  0.25567400  0.65682900  0.83974800  1
  Ti  Ti0  1  0.98341500  0.02708800  0.98038000  1
  Ti  Ti1  1  0.48341700  0.02708800  0.98038000  1
  Ti  Ti2  1  0.51655700  0.63959200  0.35293500  1
  Ti  Ti3  1  0.01655900  0.63959200  0.35293400  1
  Co  Co0  1  0.49999700  0.33335200  0.66667200  1
  Co  Co1  1  0.99999700  0.33335300  0.66667200  1
  O  O0  1  0.63977100  0.98759900  0.77338500  1
  O  O1  1  0.13977500  0.98760400  0.77339800  1
  O  O2  1  0.86019700  0.67906300  0.55992900  1
  O  O3  1  0.36020100  0.67906800  0.55994300  1
  O  O4  1  0.63800400  0.67654400  0.11426500  1
  O  O5  1  0.13800300  0.67654600  0.11426500  1
  O  O6  1  0.86198200  0.99014500  0.21903100  1
  O  O7  1  0.36198300  0.99014600  0.21903100  1
  O  O8  1  0.61585600  0.34379000  0.40359500  1
  O  O9  1  0.11585900  0.34379200  0.40359600  1
  O  O10  1  0.88417400  0.32289600  0.92977200  1
  O  O11  1  0.38417600  0.32289700  0.92977200  1
loop_
_geom_bond_atom_site_label_1
_geom_bond_atom_site_label_2
_geom_bond_distance
_geom_bond_site_symmetry_2
Li0 O11 2.072654 1_554
Li0 O10 2.072877 1_554
Li0 O8 2.073000 1_555
Li0 O9 2.073040 1_655
Li0 O6 2.159476 1_545
Li0 O4 2.160417 1_555
Li1 O10 2.072655 1_454
Li1 O11 2.072864 1_554
Li1 O9 2.073015 1_555
Li1 O8 2.073031 1_555
Li1 O7 2.159473 1_545
Li1 O5 2.160427 1_555
Li2 O2 2.070879 1_545
Li2 O8 2.083037 1_555
Li2 O1 2.221319 1_645
Li2 O0 2.221557 1_545
Li2 O7 2.252411 1_545
Li2 O6 2.252472 1_545
Li3 O3 2.070827 1_545
Li3 O9 2.083062 1_555
Li3 O0 2.221262 1_545
Li3 O1 2.221618 1_545
Li3 O6 2.252415 1_445
Li3 O7 2.252481 1_545
Li4 O0 2.070896 1_555
Li4 O10 2.082851 1_555
Li4 O3 2.221466 1_555
Li4 O2 2.221533 1_555
Li4 O5 2.252253 1_656
Li4 O4 2.252329 1_556
Li5 O1 2.070954 1_555
Li5 O11 2.082826 1_555
Li5 O3 2.221459 1_555
Li5 O2 2.221521 1_455
Li5 O4 2.252259 1_556
Li5 O5 2.252336 1_556
Co0 O3 2.155958 1_555
Co0 O0 2.156187 1_545
Co0 O9 2.159087 1_555
Co0 O11 2.159233 1_555
Co0 O8 2.159241 1_555
Co0 O10 2.159268 1_555
Co1 O2 2.155922 1_555
Co1 O1 2.156163 1_645
Co1 O8 2.159108 1_555
Co1 O10 2.159241 1_555
Co1 O9 2.159247 1_655
Co1 O11 2.159276 1_655
O0 Ti1 1.998862 1_565
O0 Ti0 1.998978 1_565
O1 Ti0 1.998804 1_465
O1 Ti1 1.998930 1_565
O2 Ti3 1.998882 1_655
O2 Ti2 1.998904 1_555
O3 Ti2 1.998940 1_555
O3 Ti3 1.998954 1_555
O4 Ti3 2.034132 1_655
O4 Ti2 2.034378 1_555
O4 Ti1 2.193785 1_564
O5 Ti2 2.034126 1_555
O5 Ti3 2.034360 1_555
O5 Ti0 2.193773 1_464
O6 Ti1 2.034154 1_564
O6 Ti0 2.034194 1_564
O6 Ti3 2.193849 1_655
O7 Ti0 2.034169 1_464
O7 Ti1 2.034198 1_564
O7 Ti2 2.193856 1_555
O8 Ti2 1.857433 1_555
O9 Ti3 1.857419 1_555
O10 Ti0 1.857508 1_555
O11 Ti1 1.857515 1_555
