# generated using pymatgen
data_Y3Pt
_symmetry_space_group_name_H-M   'P 1'
_cell_length_a   6.49194349
_cell_length_b   7.08438453
_cell_length_c   9.75717239
_cell_angle_alpha   90.00000000
_cell_angle_beta   90.00000000
_cell_angle_gamma   90.00000000
_symmetry_Int_Tables_number   1
_chemical_formula_structural   Y3Pt
_chemical_formula_sum   'Y12 Pt4'
_cell_volume   448.74625272
_cell_formula_units_Z   4
loop_
 _symmetry_equiv_pos_site_id
 _symmetry_equiv_pos_as_xyz
  1  'x, y, z'
loop_
 _atom_site_type_symbol
 _atom_site_label
 _atom_site_symmetry_multiplicity
 _atom_site_fract_x
 _atom_site_fract_y
 _atom_site_fract_z
 _atom_site_occupancy
  Y  Y0  1  0.13821588  0.03053731  0.25000000  1
  Y  Y1  1  0.63821588  0.46946269  0.75000000  1
  Y  Y2  1  0.36178412  0.53053731  0.25000000  1
  Y  Y3  1  0.86178412  0.96946269  0.75000000  1
  Y  Y4  1  0.67999767  0.17350194  0.06374037  1
  Y  Y5  1  0.17999767  0.32649806  0.93625963  1
  Y  Y6  1  0.82000233  0.67350194  0.43625963  1
  Y  Y7  1  0.32000233  0.82649806  0.56374037  1
  Y  Y8  1  0.32000233  0.82649806  0.93625963  1
  Y  Y9  1  0.82000233  0.67350194  0.06374037  1
  Y  Y10  1  0.17999767  0.32649806  0.56374037  1
  Y  Y11  1  0.67999767  0.17350194  0.43625963  1
  Pt  Pt0  1  0.94766848  0.38316226  0.25000000  1
  Pt  Pt1  1  0.44766848  0.11683774  0.75000000  1
  Pt  Pt2  1  0.55233152  0.88316226  0.25000000  1
  Pt  Pt3  1  0.05233152  0.61683774  0.75000000  1
loop_
_geom_bond_atom_site_label_1
_geom_bond_atom_site_label_2
_geom_bond_distance
_geom_bond_site_symmetry_2
Y0 Y7 3.585144 1_545
Y0 Y8 3.585144 1_544
Y0 Y11 3.630099 1_455
Y0 Y4 3.630099 1_455
Y0 Y5 3.720321 1_554
Y0 Y10 3.720321 1_555
Y0 Y9 3.737405 1_445
Y0 Y6 3.737405 1_445
Y0 Y2 3.828011 1_545
Y0 Y2 3.828011 1_555
Y1 Y6 3.585144 1_555
Y1 Y9 3.585144 1_556
Y1 Y5 3.630099 1_555
Y1 Y10 3.630099 1_555
Y1 Y11 3.720321 1_555
Y1 Y4 3.720321 1_556
Y1 Y7 3.737405 1_555
Y1 Y8 3.737405 1_555
Y1 Y3 3.828011 1_545
Y1 Y3 3.828011 1_555
Y2 Y5 3.585144 1_554
Y2 Y9 3.630099 1_555
Y2 Y6 3.630099 1_555
Y2 Y8 3.720321 1_554
Y2 Y7 3.720321 1_555
Y2 Y4 3.737405 1_555
Y3 Y4 3.585144 1_566
Y3 Y7 3.630099 1_655
Y3 Y8 3.630099 1_655
Y3 Y6 3.720321 1_555
Y3 Y9 3.720321 1_556
Y3 Y5 3.737405 1_665
Y4 Y8 3.612803 1_544
Y4 Y5 3.641195 1_554
Y4 Y5 3.641195 1_654
Y4 Y9 3.656943 1_545
Y4 Y9 3.656943 1_555
Y5 Y9 3.612803 1_456
Y5 Y8 3.656943 1_555
Y5 Y8 3.656943 1_545
Y6 Y7 3.641195 1_655
Y6 Y7 3.641195 1_555
Y8 Y9 3.641195 1_556
Y8 Y9 3.641195 1_456
Y10 Y2 3.585144 1_555
Y10 Y6 3.612803 1_455
Y10 Y11 3.641195 1_455
Y10 Y11 3.641195 1_555
Y10 Y7 3.656943 1_555
Y10 Y7 3.656943 1_545
Y10 Y3 3.737405 1_445
Y11 Y3 3.585144 1_545
Y11 Y7 3.612803 1_545
Y11 Y6 3.656943 1_555
Y11 Y6 3.656943 1_545
Y11 Y2 3.737405 1_555
Pt0 Y0 2.787630 1_655
Pt0 Y9 2.867138 1_555
Pt0 Y6 2.867138 1_555
Pt0 Y2 2.884032 1_655
Pt0 Y4 2.920376 1_555
Pt0 Y11 2.920376 1_555
Pt0 Y5 3.436143 1_654
Pt0 Y10 3.436143 1_655
Pt1 Y1 2.787630 1_555
Pt1 Y8 2.867138 1_545
Pt1 Y7 2.867138 1_545
Pt1 Y3 2.884032 1_545
Pt1 Y10 2.920376 1_555
Pt1 Y5 2.920376 1_555
Pt1 Y11 3.436143 1_555
Pt1 Y4 3.436143 1_556
Pt2 Y2 2.787630 1_555
Pt2 Y4 2.867138 1_565
Pt2 Y11 2.867138 1_565
Pt2 Y0 2.884032 1_565
Pt2 Y9 2.920376 1_555
Pt2 Y6 2.920376 1_555
Pt2 Y8 3.436143 1_554
Pt2 Y7 3.436143 1_555
Pt3 Y3 2.787630 1_455
Pt3 Y10 2.867138 1_555
Pt3 Y5 2.867138 1_555
Pt3 Y1 2.884032 1_455
Pt3 Y7 2.920376 1_555
Pt3 Y8 2.920376 1_555
Pt3 Y6 3.436143 1_455
Pt3 Y9 3.436143 1_456
