# generated using pymatgen
data_Li4Cr3Ni3(TeO8)2
_symmetry_space_group_name_H-M   'P 1'
_cell_length_a   5.92100175
_cell_length_b   5.92100175
_cell_length_c   9.62855920
_cell_angle_alpha   89.20117327
_cell_angle_beta   89.20117327
_cell_angle_gamma   59.95605038
_symmetry_Int_Tables_number   1
_chemical_formula_structural   Li4Cr3Ni3(TeO8)2
_chemical_formula_sum   'Li4 Cr3 Ni3 Te2 O16'
_cell_volume   292.16860850
_cell_formula_units_Z   1
loop_
 _symmetry_equiv_pos_site_id
 _symmetry_equiv_pos_as_xyz
  1  'x, y, z'
loop_
 _atom_site_type_symbol
 _atom_site_label
 _atom_site_symmetry_multiplicity
 _atom_site_fract_x
 _atom_site_fract_y
 _atom_site_fract_z
 _atom_site_occupancy
  Li  Li0  1  0.66457800  0.66457800  0.09109700  1
  Li  Li1  1  0.99611600  0.99611600  0.01500800  1
  Li  Li2  1  0.99876600  0.99876600  0.51012200  1
  Li  Li3  1  0.33326400  0.33326400  0.58946300  1
  Cr  Cr0  1  0.34081300  0.83169700  0.78714700  1
  Cr  Cr1  1  0.83169700  0.34081300  0.78714700  1
  Cr  Cr2  1  0.17191600  0.17191600  0.28601700  1
  Ni  Ni0  1  0.82991100  0.82991100  0.78728100  1
  Ni  Ni1  1  0.17203200  0.65955300  0.28737600  1
  Ni  Ni2  1  0.65955300  0.17203200  0.28737600  1
  Te  Te0  1  0.66981000  0.66981000  0.51469300  1
  Te  Te1  1  0.33498900  0.33498900  0.01657900  1
  O  O0  1  0.34370800  0.83243000  0.40976600  1
  O  O1  1  0.51867400  0.51867400  0.65548800  1
  O  O2  1  0.66234700  0.66234700  0.89134200  1
  O  O3  1  0.00366600  0.00366600  0.69678200  1
  O  O4  1  0.00375500  0.00375500  0.20131300  1
  O  O5  1  0.83243000  0.34370800  0.40976600  1
  O  O6  1  0.51214800  0.96437700  0.64991200  1
  O  O7  1  0.96437700  0.51214800  0.64991200  1
  O  O8  1  0.17000100  0.17000100  0.90565700  1
  O  O9  1  0.83288900  0.83288900  0.41082700  1
  O  O10  1  0.03318700  0.47431400  0.14787900  1
  O  O11  1  0.47431400  0.03318700  0.14787900  1
  O  O12  1  0.32990500  0.32990500  0.38980500  1
  O  O13  1  0.17099300  0.66219300  0.90956000  1
  O  O14  1  0.48101700  0.48101700  0.14745600  1
  O  O15  1  0.66219300  0.17099300  0.90956000  1
loop_
_geom_bond_atom_site_label_1
_geom_bond_atom_site_label_2
_geom_bond_distance
_geom_bond_site_symmetry_2
Li0 O2 1.923857 1_554
Li0 O14 1.951148 1_555
Li0 O11 1.971188 1_565
Li0 O10 1.971188 1_655
Li1 O4 1.796819 1_665
Li1 O15 1.997214 1_564
Li1 O13 1.997214 1_654
Li1 O8 2.056600 1_664
Li2 O3 1.798778 1_665
Li2 O9 1.965099 1_555
Li2 O0 2.008087 1_655
Li2 O5 2.008087 1_565
Li3 O12 1.923282 1_555
Li3 O6 1.973956 1_545
Li3 O7 1.973956 1_455
Li3 O1 2.015006 1_555
Cr0 O2 1.936520 1_555
Cr0 O3 1.940936 1_565
Cr0 O6 2.030779 1_555
Cr0 O1 2.055493 1_555
Cr0 O8 2.083345 1_565
Cr0 O13 2.086152 1_555
Cr1 O2 1.936520 1_555
Cr1 O3 1.940936 1_655
Cr1 O7 2.030779 1_555
Cr1 O1 2.055493 1_555
Cr1 O8 2.083345 1_655
Cr1 O15 2.086152 1_555
Cr2 O12 1.917595 1_555
Cr2 O4 1.919874 1_555
Cr2 O10 2.034959 1_555
Cr2 O11 2.034959 1_555
Cr2 O5 2.101081 1_455
Cr2 O0 2.101081 1_545
Ni0 O3 1.971298 1_665
Ni0 O2 1.975564 1_555
Ni0 O6 2.112662 1_555
Ni0 O7 2.112662 1_555
Ni0 O15 2.115761 1_565
Ni0 O13 2.115761 1_655
Ni1 O4 1.943084 1_565
Ni1 O12 1.949681 1_555
Ni1 O14 2.077020 1_555
Ni1 O9 2.098182 1_455
Ni1 O0 2.139779 1_555
Ni1 O10 2.158155 1_555
Ni2 O4 1.943084 1_655
Ni2 O12 1.949681 1_555
Ni2 O14 2.077020 1_555
Ni2 O9 2.098182 1_545
Ni2 O5 2.139779 1_555
Ni2 O11 2.158155 1_555
O0 Te0 1.960010 1_555
O1 Te0 2.042943 1_555
O5 Te0 1.960010 1_555
O6 Te0 2.001911 1_555
O7 Te0 2.001911 1_555
O8 Te1 2.015709 1_556
O9 Te0 1.935108 1_555
O10 Te1 1.990490 1_555
O11 Te1 1.990490 1_555
O13 Te1 1.961278 1_556
O14 Te1 1.972946 1_555
O15 Te1 1.961278 1_556
