# generated using pymatgen
data_KCaCrH10C6O17
_symmetry_space_group_name_H-M   'P 1'
_cell_length_a   11.31903700
_cell_length_b   11.18186400
_cell_length_c   16.20144927
_cell_angle_alpha   56.56038720
_cell_angle_beta   90.00000000
_cell_angle_gamma   90.00000000
_symmetry_Int_Tables_number   1
_chemical_formula_structural   KCaCrH10C6O17
_chemical_formula_sum   'K4 Ca4 Cr4 H40 C24 O68'
_cell_volume   1711.14478050
_cell_formula_units_Z   4
loop_
 _symmetry_equiv_pos_site_id
 _symmetry_equiv_pos_as_xyz
  1  'x, y, z'
loop_
 _atom_site_type_symbol
 _atom_site_label
 _atom_site_symmetry_multiplicity
 _atom_site_fract_x
 _atom_site_fract_y
 _atom_site_fract_z
 _atom_site_occupancy
  K  K0  1  0.27981500  0.73376800  0.93085800  1
  K  K1  1  0.22018500  0.73376800  0.43085800  1
  K  K2  1  0.72018500  0.26623200  0.06914200  1
  K  K3  1  0.77981500  0.26623200  0.56914200  1
  Ca  Ca0  1  0.59412800  0.89593000  0.64824400  1
  Ca  Ca1  1  0.90587200  0.89593000  0.14824400  1
  Ca  Ca2  1  0.40587200  0.10407000  0.35175600  1
  Ca  Ca3  1  0.09412800  0.10407000  0.85175600  1
  Cr  Cr0  1  0.09285500  0.72804500  0.67700700  1
  Cr  Cr1  1  0.40714500  0.72804500  0.17700700  1
  Cr  Cr2  1  0.90714500  0.27195500  0.32299300  1
  Cr  Cr3  1  0.59285500  0.27195500  0.82299300  1
  H  H0  1  0.56912100  0.98828800  0.79791900  1
  H  H1  1  0.93087900  0.98828800  0.29791900  1
  H  H2  1  0.43087900  0.01171200  0.20208100  1
  H  H3  1  0.06912100  0.01171200  0.70208100  1
  H  H4  1  0.66919400  0.86921900  0.83772000  1
  H  H5  1  0.83080600  0.86921900  0.33772000  1
  H  H6  1  0.33080600  0.13078100  0.16228000  1
  H  H7  1  0.16919400  0.13078100  0.66228000  1
  H  H8  1  0.47253300  0.16647400  0.59942900  1
  H  H9  1  0.02746700  0.16647400  0.09942900  1
  H  H10  1  0.52746700  0.83352600  0.40057100  1
  H  H11  1  0.97253300  0.83352600  0.90057100  1
  H  H12  1  0.53534800  0.21131100  0.50244000  1
  H  H13  1  0.96465200  0.21131100  0.00244000  1
  H  H14  1  0.46465200  0.78868900  0.49756000  1
  H  H15  1  0.03534800  0.78868900  0.99756000  1
  H  H16  1  0.78509800  0.77297100  0.98258000  1
  H  H17  1  0.71490200  0.77297100  0.48258000  1
  H  H18  1  0.21490200  0.22702900  0.01742000  1
  H  H19  1  0.28509800  0.22702900  0.51742000  1
  H  H20  1  0.79365600  0.68576500  0.93161600  1
  H  H21  1  0.70634400  0.68576500  0.43161600  1
  H  H22  1  0.20634400  0.31423500  0.06838400  1
  H  H23  1  0.29365600  0.31423500  0.56838400  1
  H  H24  1  0.09591700  0.48133100  0.10455100  1
  H  H25  1  0.40408300  0.48133100  0.60455100  1
  H  H26  1  0.90408300  0.51866900  0.89544900  1
  H  H27  1  0.59591700  0.51866900  0.39544900  1
  H  H28  1  0.06095500  0.42441800  0.04139400  1
  H  H29  1  0.43904500  0.42441800  0.54139400  1
  H  H30  1  0.93904500  0.57558200  0.95860600  1
  H  H31  1  0.56095500  0.57558200  0.45860600  1
  H  H32  1  0.53407600  0.67144400  0.01998200  1
  H  H33  1  0.96592400  0.67144400  0.51998200  1
  H  H34  1  0.46592400  0.32855600  0.98001800  1
  H  H35  1  0.03407600  0.32855600  0.48001800  1
  H  H36  1  0.56197200  0.56140200  0.99154300  1
  H  H37  1  0.93802800  0.56140200  0.49154300  1
  H  H38  1  0.43802800  0.43859800  0.00845700  1
  H  H39  1  0.06197200  0.43859800  0.50845700  1
  C  C0  1  0.86198800  0.80086500  0.60630400  1
  C  C1  1  0.63801200  0.80086500  0.10630400  1
  C  C2  1  0.13801200  0.19913500  0.39369600  1
  C  C3  1  0.36198800  0.19913500  0.89369600  1
  C  C4  1  0.88729900  0.88216200  0.65716300  1
  C  C5  1  0.61270100  0.88216200  0.15716300  1
  C  C6  1  0.11270100  0.11783800  0.34283700  1
  C  C7  1  0.38729900  0.11783800  0.84283700  1
  C  C8  1  0.31478100  0.80238800  0.70898100  1
  C  C9  1  0.18521900  0.80238800  0.20898100  1
  C  C10  1  0.68521900  0.19761200  0.29101900  1
  C  C11  1  0.81478100  0.19761200  0.79101900  1
  C  C12  1  0.29861500  0.88746000  0.59548100  1
  C  C13  1  0.20138500  0.88746000  0.09548100  1
  C  C14  1  0.70138500  0.11254000  0.40451900  1
  C  C15  1  0.79861500  0.11254000  0.90451900  1
  C  C16  1  0.13296000  0.45211500  0.71987100  1
  C  C17  1  0.36704000  0.45211500  0.21987100  1
  C  C18  1  0.86704000  0.54788500  0.28012900  1
  C  C19  1  0.63296000  0.54788500  0.78012900  1
  C  C20  1  0.04789700  0.43323500  0.80170200  1
  C  C21  1  0.45210300  0.43323500  0.30170200  1
  C  C22  1  0.95210300  0.56676500  0.19829800  1
  C  C23  1  0.54789700  0.56676500  0.69829800  1
  O  O0  1  0.95466800  0.74539600  0.59289100  1
  O  O1  1  0.54533200  0.74539600  0.09289100  1
  O  O2  1  0.04533200  0.25460400  0.40710900  1
  O  O3  1  0.45466800  0.25460400  0.90710900  1
  O  O4  1  0.75995300  0.79562700  0.58060400  1
  O  O5  1  0.74004700  0.79562700  0.08060400  1
  O  O6  1  0.24004700  0.20437300  0.41939600  1
  O  O7  1  0.25995300  0.20437300  0.91939600  1
  O  O8  1  0.99430300  0.86679000  0.69061600  1
  O  O9  1  0.50569700  0.86679000  0.19061600  1
  O  O10  1  0.00569700  0.13321000  0.30938400  1
  O  O11  1  0.49430300  0.13321000  0.80938400  1
  O  O12  1  0.80896600  0.95677100  0.66050900  1
  O  O13  1  0.69103400  0.95677100  0.16050900  1
  O  O14  1  0.19103400  0.04322900  0.33949100  1
  O  O15  1  0.30896600  0.04322900  0.83949100  1
  O  O16  1  0.22408600  0.72607200  0.75959900  1
  O  O17  1  0.27591400  0.72607200  0.25959900  1
  O  O18  1  0.77591400  0.27392800  0.24040100  1
  O  O19  1  0.72408600  0.27392800  0.74040100  1
  O  O20  1  0.40813900  0.81013600  0.74569500  1
  O  O21  1  0.09186100  0.81013600  0.24569500  1
  O  O22  1  0.59186100  0.18986400  0.25430500  1
  O  O23  1  0.90813900  0.18986400  0.75430500  1
  O  O24  1  0.19502200  0.87637700  0.56685800  1
  O  O25  1  0.30497800  0.87637700  0.06685800  1
  O  O26  1  0.80497800  0.12362300  0.43314200  1
  O  O27  1  0.69502200  0.12362300  0.93314200  1
  O  O28  1  0.38312200  0.95803300  0.54072700  1
  O  O29  1  0.11687800  0.95803300  0.04072700  1
  O  O30  1  0.61687800  0.04196700  0.45927300  1
  O  O31  1  0.88312200  0.04196700  0.95927300  1
  O  O32  1  0.16804800  0.58258800  0.65827600  1
  O  O33  1  0.33195200  0.58258800  0.15827600  1
  O  O34  1  0.83195200  0.41741200  0.34172400  1
  O  O35  1  0.66804800  0.41741200  0.84172400  1
  O  O36  1  0.16142900  0.34665700  0.71794300  1
  O  O37  1  0.33857100  0.34665700  0.21794300  1
  O  O38  1  0.83857100  0.65334300  0.28205700  1
  O  O39  1  0.66142900  0.65334300  0.78205700  1
  O  O40  1  0.01675500  0.55063300  0.79364100  1
  O  O41  1  0.48324500  0.55063300  0.29364100  1
  O  O42  1  0.98324500  0.44936700  0.20635900  1
  O  O43  1  0.51675500  0.44936700  0.70635900  1
  O  O44  1  0.01511700  0.31050400  0.86819800  1
  O  O45  1  0.48488300  0.31050400  0.36819800  1
  O  O46  1  0.98488300  0.68949600  0.13180200  1
  O  O47  1  0.51511700  0.68949600  0.63180200  1
  O  O48  1  0.61544800  0.92958100  0.78193800  1
  O  O49  1  0.88455200  0.92958100  0.28193800  1
  O  O50  1  0.38455200  0.07041900  0.21806200  1
  O  O51  1  0.11544800  0.07041900  0.71806200  1
  O  O52  1  0.54994100  0.15898000  0.57433200  1
  O  O53  1  0.95005900  0.15898000  0.07433200  1
  O  O54  1  0.45005900  0.84102000  0.42566800  1
  O  O55  1  0.04994100  0.84102000  0.92566800  1
  O  O56  1  0.80586600  0.78083700  0.92032900  1
  O  O57  1  0.69413400  0.78083700  0.42032900  1
  O  O58  1  0.19413400  0.21916300  0.07967100  1
  O  O59  1  0.30586600  0.21916300  0.57967100  1
  O  O60  1  0.12190900  0.48224800  0.04610200  1
  O  O61  1  0.37809100  0.48224800  0.54610200  1
  O  O62  1  0.87809100  0.51775200  0.95389800  1
  O  O63  1  0.62190900  0.51775200  0.45389800  1
  O  O64  1  0.50893900  0.63919900  0.97703600  1
  O  O65  1  0.99106100  0.63919900  0.47703600  1
  O  O66  1  0.49106100  0.36080100  0.02296400  1
  O  O67  1  0.00893900  0.36080100  0.52296400  1
loop_
_geom_bond_atom_site_label_1
_geom_bond_atom_site_label_2
_geom_bond_distance
_geom_bond_site_symmetry_2
K0 O64 2.744462 1_555
K0 O55 2.846815 1_555
K0 O16 2.892597 1_555
K0 O15 2.937478 1_565
K0 O60 2.967026 1_556
K0 O20 3.002516 1_555
K0 O33 3.149116 1_556
K0 O25 3.369176 1_556
K1 O65 2.744462 1_455
K1 O54 2.846815 1_555
K1 O17 2.892597 1_555
K1 O14 2.937478 1_565
K1 O61 2.967026 1_555
K1 O21 3.002516 1_555
K1 O32 3.149116 1_555
K1 O24 3.369176 1_555
K2 O66 2.744462 1_555
K2 O53 2.846815 1_555
K2 O18 2.892597 1_555
K2 O13 2.937478 1_545
K2 O62 2.967026 1_554
K2 O22 3.002516 1_555
K2 O35 3.149116 1_554
K2 O27 3.369176 1_554
K3 O67 2.744462 1_655
K3 O52 2.846815 1_555
K3 O19 2.892597 1_555
K3 O12 2.937478 1_545
K3 O63 2.967026 1_555
K3 O23 3.002516 1_555
K3 O34 3.149116 1_555
K3 O26 3.369176 1_555
Ca0 O48 2.406201 1_555
Ca0 O39 2.481363 1_555
Ca0 O20 2.485097 1_555
Ca0 O52 2.540463 1_565
Ca0 O12 2.562179 1_555
Ca0 O30 2.568324 1_565
Ca0 O47 2.622366 1_555
Ca0 O4 2.708599 1_555
Ca0 O28 2.808517 1_555
Ca1 O49 2.406201 1_555
Ca1 O38 2.481363 1_555
Ca1 O21 2.485097 1_655
Ca1 O53 2.540463 1_565
Ca1 O13 2.562179 1_555
Ca1 O31 2.568324 1_564
Ca1 O46 2.622366 1_555
Ca1 O5 2.708599 1_555
Ca1 O29 2.808517 1_655
Ca2 O50 2.406201 1_555
Ca2 O37 2.481363 1_555
Ca2 O22 2.485097 1_555
Ca2 O54 2.540463 1_545
Ca2 O14 2.562179 1_555
Ca2 O28 2.568324 1_545
Ca2 O45 2.622366 1_555
Ca2 O6 2.708599 1_555
Ca2 O30 2.808517 1_555
Ca3 O51 2.406201 1_555
Ca3 O36 2.481363 1_555
Ca3 O23 2.485097 1_455
Ca3 O55 2.540463 1_545
Ca3 O15 2.562179 1_555
Ca3 O29 2.568324 1_546
Ca3 O44 2.622366 1_555
Ca3 O7 2.708599 1_555
Ca3 O31 2.808517 1_455
Cr0 O16 1.991213 1_555
Cr0 O32 2.001478 1_555
Cr0 O24 2.002719 1_555
Cr0 O0 2.012463 1_455
Cr0 O8 2.019136 1_455
Cr0 O40 2.028966 1_555
Cr1 O17 1.991213 1_555
Cr1 O33 2.001478 1_555
Cr1 O25 2.002719 1_555
Cr1 O1 2.012463 1_555
Cr1 O9 2.019136 1_555
Cr1 O41 2.028966 1_555
Cr2 O18 1.991213 1_555
Cr2 O34 2.001478 1_555
Cr2 O26 2.002719 1_555
Cr2 O2 2.012463 1_655
Cr2 O10 2.019136 1_655
Cr2 O42 2.028966 1_555
Cr3 O19 1.991213 1_555
Cr3 O35 2.001478 1_555
Cr3 O27 2.002719 1_555
Cr3 O3 2.012463 1_555
Cr3 O11 2.019136 1_555
Cr3 O43 2.028966 1_555
H0 O48 0.979930 1_555
H1 O49 0.979930 1_555
H2 O50 0.979930 1_555
H3 O51 0.979930 1_555
H4 O48 0.984958 1_555
H5 O49 0.984958 1_555
H6 O50 0.984958 1_555
H7 O51 0.984958 1_555
H8 O52 0.988738 1_555
H9 O53 0.988738 1_455
H10 O54 0.988738 1_555
H11 O55 0.988738 1_655
H12 O52 0.987514 1_555
H13 O53 0.987514 1_555
H14 O54 0.987514 1_555
H15 O55 0.987514 1_555
H16 O56 0.991168 1_555
H17 O57 0.991168 1_555
H18 O58 0.991168 1_555
H19 O59 0.991168 1_555
H20 O56 0.984089 1_555
H21 O57 0.984089 1_555
H22 O58 0.984089 1_555
H23 O59 0.984089 1_555
H24 O60 0.986251 1_555
H25 O61 0.986251 1_555
H26 O62 0.986251 1_555
H27 O63 0.986251 1_555
H28 O60 0.976908 1_555
H29 O61 0.976908 1_555
H30 O62 0.976908 1_555
H31 O63 0.976908 1_555
H32 O64 0.985682 1_554
H32 O1 1.780974 1_555
H33 O65 0.985682 1_555
H33 O0 1.780974 1_555
H34 O66 0.985682 1_556
H34 O3 1.780974 1_555
H35 O67 0.985682 1_555
H35 O2 1.780974 1_555
H36 O64 0.973136 1_555
H36 K2 3.332870 1_556
H37 O65 0.973136 1_555
H37 K3 3.332870 1_555
H38 O66 0.973136 1_555
H38 K0 3.332870 1_554
H39 O67 0.973136 1_555
H39 K1 3.332870 1_555
C0 O4 1.239984 1_555
C0 O0 1.296527 1_555
C0 C4 1.553368 1_555
C1 O5 1.239984 1_555
C1 O1 1.296527 1_555
C1 C5 1.553368 1_555
C2 O6 1.239984 1_555
C2 O2 1.296527 1_555
C2 C6 1.553368 1_555
C3 O7 1.239984 1_555
C3 O3 1.296527 1_555
C3 C7 1.553368 1_555
C4 O12 1.238927 1_555
C4 O8 1.299070 1_555
C5 O13 1.238927 1_555
C5 O9 1.299070 1_555
C6 O14 1.238927 1_555
C6 O10 1.299070 1_555
C7 O15 1.238927 1_555
C7 O11 1.299070 1_555
C8 O20 1.238861 1_555
C8 O16 1.297434 1_555
C9 O21 1.238861 1_555
C9 O17 1.297434 1_555
C10 O22 1.238861 1_555
C10 O18 1.297434 1_555
C10 C14 1.546589 1_555
C11 O23 1.238861 1_555
C11 O19 1.297434 1_555
C11 C15 1.546589 1_555
C12 O28 1.246240 1_555
C12 O24 1.291771 1_555
C12 C8 1.546589 1_555
C13 O29 1.246240 1_555
C13 O25 1.291771 1_555
C13 C9 1.546589 1_555
C14 O30 1.246240 1_555
C14 O26 1.291771 1_555
C15 O31 1.246240 1_555
C15 O27 1.291771 1_555
C16 O36 1.239340 1_555
C16 O32 1.295183 1_555
C16 C20 1.555904 1_555
C17 O37 1.239340 1_555
C17 O33 1.295183 1_555
C17 C21 1.555904 1_555
C18 O38 1.239340 1_555
C18 O34 1.295183 1_555
C18 C22 1.555904 1_555
C19 O39 1.239340 1_555
C19 O35 1.295183 1_555
C19 C23 1.555904 1_555
C20 O44 1.245883 1_555
C20 O40 1.294457 1_555
C21 O45 1.245883 1_555
C21 O41 1.294457 1_555
C22 O46 1.245883 1_555
C22 O42 1.294457 1_555
C23 O47 1.245883 1_555
C23 O43 1.294457 1_555
