# generated using pymatgen
data_NaFeAsCO7
_symmetry_space_group_name_H-M   'P 1'
_cell_length_a   9.35208866
_cell_length_b   6.68170500
_cell_length_c   5.39750223
_cell_angle_alpha   90.00000000
_cell_angle_beta   87.34009673
_cell_angle_gamma   90.00000000
_symmetry_Int_Tables_number   1
_chemical_formula_structural   NaFeAsCO7
_chemical_formula_sum   'Na2 Fe2 As2 C2 O14'
_cell_volume   336.91518115
_cell_formula_units_Z   2
loop_
 _symmetry_equiv_pos_site_id
 _symmetry_equiv_pos_as_xyz
  1  'x, y, z'
loop_
 _atom_site_type_symbol
 _atom_site_label
 _atom_site_symmetry_multiplicity
 _atom_site_fract_x
 _atom_site_fract_y
 _atom_site_fract_z
 _atom_site_occupancy
  Na  Na0  1  0.23055000  0.48256300  0.23272800  1
  Na  Na1  1  0.76945000  0.98256300  0.76727200  1
  Fe  Fe0  1  0.35206000  0.76284000  0.79264800  1
  Fe  Fe1  1  0.64794000  0.26284000  0.20735200  1
  As  As0  1  0.42844100  0.25356700  0.72223500  1
  As  As1  1  0.57155900  0.75356700  0.27776500  1
  C  C0  1  0.08243400  0.74575600  0.72446000  1
  C  C1  1  0.91756600  0.24575600  0.27554000  1
  O  O0  1  0.04961000  0.25152800  0.30747100  1
  O  O1  1  0.13421300  0.74866500  0.94249700  1
  O  O2  1  0.17738400  0.73861000  0.54100300  1
  O  O3  1  0.32255000  0.05117300  0.78763400  1
  O  O4  1  0.32590400  0.45781600  0.80121600  1
  O  O5  1  0.41161000  0.74029100  0.13343000  1
  O  O6  1  0.47021300  0.26503900  0.40543500  1
  O  O7  1  0.52978700  0.76503900  0.59456500  1
  O  O8  1  0.58839000  0.24029100  0.86657000  1
  O  O9  1  0.67409600  0.95781600  0.19878400  1
  O  O10  1  0.67745000  0.55117300  0.21236600  1
  O  O11  1  0.82261600  0.23861000  0.45899700  1
  O  O12  1  0.86578700  0.24866500  0.05750300  1
  O  O13  1  0.95039000  0.75152800  0.69252900  1
loop_
_geom_bond_atom_site_label_1
_geom_bond_atom_site_label_2
_geom_bond_distance
_geom_bond_site_symmetry_2
Na0 O0 2.312110 1_555
Na0 O2 2.421980 1_555
Na0 O5 2.456776 1_555
Na0 O4 2.460579 1_554
Na0 O1 2.560867 1_554
Na0 O6 2.863390 1_555
Na1 O13 2.312110 1_555
Na1 O11 2.421980 1_565
Na1 O8 2.456776 1_565
Na1 O9 2.460579 1_556
Na1 O12 2.560867 1_566
Na1 O7 2.863390 1_555
Fe0 O7 1.934168 1_555
Fe0 O3 1.946589 1_565
Fe0 O5 1.952235 1_556
Fe0 O4 2.052972 1_555
Fe0 O1 2.158911 1_555
Fe0 O2 2.178441 1_555
Fe1 O6 1.934168 1_555
Fe1 O10 1.946589 1_555
Fe1 O8 1.952235 1_554
Fe1 O9 2.052972 1_545
Fe1 O12 2.158911 1_555
Fe1 O11 2.178441 1_555
As0 O3 1.703429 1_555
As0 O4 1.710508 1_555
As0 O8 1.720621 1_555
As0 O6 1.737914 1_555
As1 O10 1.703429 1_555
As1 O9 1.710508 1_555
As1 O5 1.720621 1_555
As1 O7 1.737914 1_555
C0 O13 1.255345 1_455
C0 O1 1.293348 1_555
C0 O2 1.299882 1_555
C1 O0 1.255345 1_655
C1 O12 1.293348 1_555
C1 O11 1.299882 1_555
