# generated using pymatgen
data_Zr2N2O
_symmetry_space_group_name_H-M   'P 1'
_cell_length_a   8.78165608
_cell_length_b   8.79053184
_cell_length_c   8.79211207
_cell_angle_alpha   109.43147773
_cell_angle_beta   109.45790397
_cell_angle_gamma   109.48122875
_symmetry_Int_Tables_number   1
_chemical_formula_structural   Zr2N2O
_chemical_formula_sum   'Zr16 N16 O8'
_cell_volume   522.74919272
_cell_formula_units_Z   8
loop_
 _symmetry_equiv_pos_site_id
 _symmetry_equiv_pos_as_xyz
  1  'x, y, z'
loop_
 _atom_site_type_symbol
 _atom_site_label
 _atom_site_symmetry_multiplicity
 _atom_site_fract_x
 _atom_site_fract_y
 _atom_site_fract_z
 _atom_site_occupancy
  Zr  Zr0  1  0.01123038  0.00144606  0.50935174  1
  Zr  Zr1  1  0.79107389  0.75152969  0.03319329  1
  Zr  Zr2  1  0.74807997  0.52608367  0.28451130  1
  Zr  Zr3  1  0.24674524  0.96280070  0.21522419  1
  Zr  Zr4  1  0.97195509  0.22104088  0.25366135  1
  Zr  Zr5  1  0.46372277  0.71161668  0.24556832  1
  Zr  Zr6  1  0.70525655  0.23893846  0.45731082  1
  Zr  Zr7  1  0.00035319  0.49255213  0.98946984  1
  Zr  Zr8  1  0.50077766  0.99980754  0.99749136  1
  Zr  Zr9  1  0.48792838  0.49191929  0.49666268  1
  Zr  Zr10  1  0.28042037  0.75295349  0.54595283  1
  Zr  Zr11  1  0.03216791  0.78408083  0.74965540  1
  Zr  Zr12  1  0.53062315  0.28290939  0.74307271  1
  Zr  Zr13  1  0.75669392  0.04539477  0.78615992  1
  Zr  Zr14  1  0.25822795  0.47057102  0.71919461  1
  Zr  Zr15  1  0.21634100  0.25665602  0.96628774  1
  N  N0  1  0.51183245  0.96366649  0.23871033  1
  N  N1  1  0.95123928  0.98358335  0.72449022  1
  N  N2  1  0.74067692  0.27360539  0.22880928  1
  N  N3  1  0.98814389  0.72734292  0.95556155  1
  N  N4  1  0.47063295  0.45478560  0.22949730  1
  N  N5  1  0.77715642  0.26513095  0.72809945  1
  N  N6  1  0.53802850  0.55067080  0.77460376  1
  N  N7  1  0.03044060  0.75826293  0.48264951  1
  N  N8  1  0.22845681  0.46709582  0.45749810  1
  N  N9  1  0.00594175  0.27121869  0.04319019  1
  N  N10  1  0.45542963  0.22951297  0.46515994  1
  N  N11  1  0.26100702  0.73142398  0.77682312  1
  N  N12  1  0.04225219  0.01233192  0.27219609  1
  N  N13  1  0.23968113  0.51416510  0.97099074  1
  N  N14  1  0.49160267  0.03377464  0.76384299  1
  N  N15  1  0.27012996  0.22689191  0.73704464  1
  O  O0  1  0.72435258  0.76918880  0.25608359  1
  O  O1  1  0.76315113  0.49443045  0.03743701  1
  O  O2  1  0.54113346  0.77179343  0.52902537  1
  O  O3  1  0.77341964  0.53500233  0.54579151  1
  O  O4  1  0.23039509  0.74028449  0.27440248  1
  O  O5  1  0.72452720  0.95260937  0.98905877  1
  O  O6  1  0.96515419  0.23788027  0.51286499  1
  O  O7  1  0.27361711  0.04504280  0.01339799  1
loop_
_geom_bond_atom_site_label_1
_geom_bond_atom_site_label_2
_geom_bond_distance
_geom_bond_site_symmetry_2
N0 Zr6 2.103238 1_565
N0 Zr5 2.138397 1_555
N0 Zr8 2.222603 1_554
N0 Zr3 2.264668 1_555
N0 O0 2.922468 1_555
N1 Zr13 2.132660 1_565
N1 Zr11 2.148101 1_655
N1 Zr0 2.164806 1_665
N1 Zr15 2.298107 1_665
N1 O2 2.943683 1_555
N2 Zr2 2.080682 1_555
N2 Zr4 2.187169 1_555
N2 Zr8 2.207690 1_544
N2 Zr6 2.232980 1_555
N2 O1 2.962597 1_555
N3 Zr1 2.107577 1_556
N3 Zr11 2.148029 1_655
N3 Zr7 2.212671 1_655
N3 Zr3 2.218111 1_656
N3 O3 2.947646 1_555
N4 Zr2 2.134868 1_555
N4 Zr15 2.157942 1_554
N4 Zr9 2.205959 1_555
N4 Zr5 2.237323 1_555
N4 O7 2.945633 1_555
N5 Zr7 2.109051 1_655
N5 Zr13 2.123584 1_555
N5 Zr6 2.157941 1_555
N5 Zr12 2.265109 1_555
N5 O6 2.899583 1_555
N6 Zr1 2.137916 1_556
N6 Zr14 2.142621 1_555
N6 Zr9 2.173557 1_555
N6 Zr12 2.252338 1_555
N6 O5 2.893389 1_555
N7 Zr10 2.098246 1_555
N7 Zr0 2.141582 1_565
N7 Zr2 2.174785 1_455
N7 Zr11 2.276444 1_555
N7 O4 2.931734 1_555
N8 Zr4 2.108486 1_455
N8 Zr9 2.110402 1_555
N8 Zr10 2.196791 1_555
N8 Zr14 2.215944 1_555
N9 Zr4 2.128654 1_455
N9 Zr13 2.158723 1_454
N9 Zr7 2.161176 1_554
N9 Zr15 2.195413 1_554
N10 Zr9 2.135916 1_555
N10 Zr12 2.140555 1_555
N10 Zr3 2.169658 1_545
N10 Zr6 2.192767 1_555
N10 N12 2.968455 1_555
N11 Zr10 2.156329 1_555
N11 Zr8 2.164054 1_555
N11 Zr11 2.164246 1_555
N11 Zr14 2.167195 1_555
N11 N13 2.956444 1_555
N12 Zr3 2.154305 1_545
N12 Zr4 2.158927 1_455
N12 Zr1 2.206959 1_445
N12 Zr0 2.219193 1_555
N13 Zr7 2.112183 1_555
N13 Zr5 2.116939 1_556
N13 Zr15 2.188700 1_555
N13 Zr14 2.189009 1_555
N14 Zr8 2.151635 1_545
N14 Zr10 2.153153 1_545
N14 Zr12 2.180419 1_555
N14 Zr13 2.234274 1_555
N14 N15 2.980441 1_555
N15 Zr0 2.104016 1_555
N15 Zr12 2.151454 1_555
N15 Zr15 2.172506 1_555
N15 Zr14 2.232956 1_555
O0 Zr5 2.135042 1_555
O0 Zr1 2.197947 1_555
O0 Zr0 2.297941 1_665
O0 Zr2 2.300097 1_555
O1 Zr2 2.151228 1_555
O1 Zr1 2.204963 1_555
O1 Zr12 2.251653 1_554
O1 Zr7 2.262898 1_654
O2 Zr5 2.169612 1_555
O2 Zr13 2.230077 1_565
O2 Zr9 2.242991 1_555
O2 Zr10 2.298230 1_555
O2 O4 2.747380 1_555
O3 Zr11 2.127631 1_655
O3 Zr2 2.204718 1_555
O3 Zr6 2.245080 1_555
O3 Zr9 2.269771 1_555
O4 Zr3 2.158010 1_555
O4 Zr5 2.230284 1_555
O4 Zr10 2.235451 1_555
O4 Zr7 2.272312 1_554
O5 Zr1 2.147267 1_556
O5 Zr8 2.158420 1_555
O5 Zr13 2.253339 1_565
O5 Zr4 2.293766 1_566
O6 Zr6 2.173058 1_555
O6 Zr14 2.237830 1_655
O6 Zr0 2.238500 1_655
O6 Zr4 2.256368 1_555
O7 Zr3 2.178502 1_545
O7 Zr8 2.198872 1_544
O7 Zr15 2.209703 1_554
O7 Zr11 2.252998 1_544
