# generated using pymatgen
data_Fe5(OF4)2
_symmetry_space_group_name_H-M   'P 1'
_cell_length_a   4.78946544
_cell_length_b   4.78901339
_cell_length_c   16.14784200
_cell_angle_alpha   90.00000000
_cell_angle_beta   90.00000000
_cell_angle_gamma   90.70801286
_symmetry_Int_Tables_number   1
_chemical_formula_structural   Fe5(OF4)2
_chemical_formula_sum   'Fe10 O4 F16'
_cell_volume   370.35177225
_cell_formula_units_Z   2
loop_
 _symmetry_equiv_pos_site_id
 _symmetry_equiv_pos_as_xyz
  1  'x, y, z'
loop_
 _atom_site_type_symbol
 _atom_site_label
 _atom_site_symmetry_multiplicity
 _atom_site_fract_x
 _atom_site_fract_y
 _atom_site_fract_z
 _atom_site_occupancy
  Fe  Fe0  1  0.95575000  0.95751000  0.00000000  1
  Fe  Fe1  1  0.02781500  0.02637200  0.20122700  1
  Fe  Fe2  1  0.00437600  0.98861500  0.40486400  1
  Fe  Fe3  1  0.00437600  0.98861500  0.59513600  1
  Fe  Fe4  1  0.02781500  0.02637200  0.79877300  1
  Fe  Fe5  1  0.49588000  0.49706200  0.09931400  1
  Fe  Fe6  1  0.47227200  0.52535600  0.50000000  1
  Fe  Fe7  1  0.49619800  0.48865300  0.29412500  1
  Fe  Fe8  1  0.49619800  0.48865300  0.70587500  1
  Fe  Fe9  1  0.49588000  0.49706200  0.90068600  1
  O  O0  1  0.20836100  0.79704500  0.50000000  1
  O  O1  1  0.32034100  0.31876700  0.18669200  1
  O  O2  1  0.32034100  0.31876700  0.81330800  1
  O  O3  1  0.67901500  0.68028300  0.00000000  1
  F  F0  1  0.19432100  0.80147800  0.08948900  1
  F  F1  1  0.20291300  0.79650400  0.29897600  1
  F  F2  1  0.20291300  0.79650400  0.70102400  1
  F  F3  1  0.19432100  0.80147800  0.91051100  1
  F  F4  1  0.28716800  0.28887200  0.00000000  1
  F  F5  1  0.30573900  0.30376000  0.40276600  1
  F  F6  1  0.30573900  0.30376000  0.59723400  1
  F  F7  1  0.71571500  0.71467900  0.18672300  1
  F  F8  1  0.69053600  0.68765200  0.40052600  1
  F  F9  1  0.69053600  0.68765200  0.59947400  1
  F  F10  1  0.71571500  0.71467900  0.81327700  1
  F  F11  1  0.80069700  0.19544400  0.08969700  1
  F  F12  1  0.78006200  0.22096500  0.50000000  1
  F  F13  1  0.80415600  0.19599800  0.30187500  1
  F  F14  1  0.80069700  0.19544400  0.91030300  1
  F  F15  1  0.80415600  0.19599800  0.69812500  1
loop_
_geom_bond_atom_site_label_1
_geom_bond_atom_site_label_2
_geom_bond_distance
_geom_bond_site_symmetry_2
Fe0 O3 1.864368 1_555
Fe1 O1 1.982503 1_555
Fe2 O0 2.044103 1_555
Fe3 O0 2.044103 1_555
Fe4 O2 1.982503 1_555
Fe5 O1 1.846347 1_555
Fe5 O3 2.022896 1_555
Fe6 O0 1.825169 1_555
Fe7 O1 2.089010 1_555
Fe8 O2 2.089010 1_555
Fe9 O2 1.846347 1_555
Fe9 O3 2.022896 1_556
F0 Fe0 1.993301 1_455
F0 Fe5 2.070884 1_555
F0 Fe1 2.252280 1_565
F0 F4 2.776413 1_565
F0 O3 2.801315 1_555
F0 F7 2.805175 1_455
F0 F4 2.887790 1_555
F1 Fe7 2.050367 1_555
F1 Fe1 2.104618 1_565
F1 Fe2 2.166997 1_555
F1 F13 2.720334 1_465
F1 F8 2.906057 1_555
F2 Fe8 2.050367 1_555
F2 Fe4 2.104618 1_565
F2 Fe3 2.166997 1_555
F2 F9 2.906057 1_555
F3 Fe0 1.993301 1_456
F3 Fe9 2.070884 1_555
F3 Fe4 2.252280 1_565
F3 F4 2.776413 1_566
F3 O3 2.801315 1_556
F3 F4 2.887790 1_556
F4 Fe5 2.130854 1_555
F4 Fe9 2.130854 1_554
F4 Fe0 2.230596 1_445
F5 Fe6 2.051031 1_555
F5 Fe2 2.075671 1_545
F5 Fe7 2.161898 1_555
F5 F8 2.587290 1_555
F5 O0 2.879360 1_555
F6 Fe6 2.051031 1_555
F6 Fe3 2.075671 1_545
F6 Fe8 2.161898 1_555
F6 F9 2.587290 1_555
F6 O0 2.879360 1_555
F7 Fe5 2.039564 1_555
F7 Fe1 2.112409 1_665
F7 Fe7 2.292763 1_555
F8 Fe6 2.063245 1_555
F8 Fe2 2.070783 1_655
F8 Fe7 2.169026 1_555
F8 O0 2.866648 1_555
F9 Fe6 2.063245 1_555
F9 Fe3 2.070783 1_655
F9 Fe8 2.169026 1_555
F9 O0 2.866648 1_555
F10 Fe9 2.039564 1_555
F10 Fe4 2.112409 1_665
F10 Fe8 2.292763 1_555
F10 F3 2.805175 1_655
F10 F14 2.810381 1_565
F11 Fe0 1.992157 1_545
F11 Fe5 2.072200 1_555
F11 Fe1 2.259226 1_655
F11 F4 2.775055 1_655
F11 O3 2.803963 1_555
F11 F7 2.810381 1_545
F11 F4 2.893885 1_555
F12 Fe6 2.085955 1_555
F12 Fe2 2.186769 1_645
F12 Fe3 2.186769 1_645
F12 F9 2.789767 1_555
F12 F8 2.789767 1_555
F12 F6 2.793854 1_555
F12 F5 2.793854 1_555
F13 Fe7 2.050981 1_555
F13 Fe1 2.114313 1_655
F13 Fe2 2.166845 1_645
F13 F8 2.899878 1_555
F14 Fe0 1.992157 1_546
F14 Fe9 2.072200 1_555
F14 Fe4 2.259226 1_655
F14 F4 2.775055 1_656
F14 O3 2.803963 1_556
F14 F4 2.893885 1_556
F15 Fe8 2.050981 1_555
F15 Fe4 2.114313 1_655
F15 Fe3 2.166845 1_645
F15 F2 2.720334 1_645
F15 F9 2.899878 1_555
