# generated using pymatgen
data_V(GeO3)2
_symmetry_space_group_name_H-M   'P 1'
_cell_length_a   8.88388500
_cell_length_b   5.48477100
_cell_length_c   9.67126914
_cell_angle_alpha   77.03298385
_cell_angle_beta   90.00000000
_cell_angle_gamma   90.00000000
_symmetry_Int_Tables_number   1
_chemical_formula_structural   V(GeO3)2
_chemical_formula_sum   'V4 Ge8 O24'
_cell_volume   459.22600610
_cell_formula_units_Z   4
loop_
 _symmetry_equiv_pos_site_id
 _symmetry_equiv_pos_as_xyz
  1  'x, y, z'
loop_
 _atom_site_type_symbol
 _atom_site_label
 _atom_site_symmetry_multiplicity
 _atom_site_fract_x
 _atom_site_fract_y
 _atom_site_fract_z
 _atom_site_occupancy
  V  V0  1  0.35274300  0.02197500  0.25191500  1
  V  V1  1  0.14725700  0.52197500  0.25191500  1
  V  V2  1  0.85274300  0.47802500  0.74808500  1
  V  V3  1  0.64725700  0.97802500  0.74808500  1
  Ge  Ge0  1  0.66165800  0.16824800  0.05083900  1
  Ge  Ge1  1  0.83834200  0.66824800  0.05083900  1
  Ge  Ge2  1  0.83616800  0.27295500  0.45246800  1
  Ge  Ge3  1  0.66383200  0.77295500  0.45246800  1
  Ge  Ge4  1  0.33616800  0.22704500  0.54753200  1
  Ge  Ge5  1  0.16383200  0.72704500  0.54753200  1
  Ge  Ge6  1  0.16165800  0.33175200  0.94916100  1
  Ge  Ge7  1  0.33834200  0.83175200  0.94916100  1
  O  O0  1  0.79448300  0.35049100  0.11697100  1
  O  O1  1  0.48379300  0.21555000  0.11805800  1
  O  O2  1  0.18231500  0.27108400  0.14020300  1
  O  O3  1  0.70551700  0.85049100  0.11697100  1
  O  O4  1  0.01620700  0.71555000  0.11805800  1
  O  O5  1  0.31768500  0.77108400  0.14020300  1
  O  O6  1  0.79659400  0.00887900  0.38435200  1
  O  O7  1  0.32346800  0.30126900  0.35910000  1
  O  O8  1  0.01917400  0.36790800  0.38905400  1
  O  O9  1  0.70340600  0.50887900  0.38435200  1
  O  O10  1  0.17653200  0.80126900  0.35910000  1
  O  O11  1  0.48082600  0.86790800  0.38905400  1
  O  O12  1  0.51917400  0.13209200  0.61094600  1
  O  O13  1  0.82346800  0.19873100  0.64090000  1
  O  O14  1  0.29659400  0.49112100  0.61564800  1
  O  O15  1  0.98082600  0.63209200  0.61094600  1
  O  O16  1  0.67653200  0.69873100  0.64090000  1
  O  O17  1  0.20340600  0.99112100  0.61564800  1
  O  O18  1  0.68231500  0.22891600  0.85979700  1
  O  O19  1  0.98379300  0.28445000  0.88194200  1
  O  O20  1  0.29448300  0.14950900  0.88302900  1
  O  O21  1  0.81768500  0.72891600  0.85979700  1
  O  O22  1  0.51620700  0.78445000  0.88194200  1
  O  O23  1  0.20551700  0.64950900  0.88302900  1
loop_
_geom_bond_atom_site_label_1
_geom_bond_atom_site_label_2
_geom_bond_distance
_geom_bond_site_symmetry_2
Ge0 O1 1.749983 1_555
Ge0 O0 1.757127 1_555
Ge0 O3 1.760134 1_545
Ge0 O18 1.811681 1_554
Ge1 O4 1.749983 1_655
Ge1 O3 1.757127 1_555
Ge1 O0 1.760134 1_555
Ge1 O21 1.811681 1_554
Ge2 O6 1.756029 1_555
Ge2 O9 1.765477 1_555
Ge2 O8 1.774051 1_655
Ge2 O13 1.779486 1_555
Ge3 O9 1.756029 1_555
Ge3 O6 1.765477 1_565
Ge3 O11 1.774051 1_555
Ge3 O16 1.779486 1_555
Ge4 O14 1.756029 1_555
Ge4 O17 1.765477 1_545
Ge4 O12 1.774051 1_555
Ge4 O7 1.779486 1_555
Ge5 O17 1.756029 1_555
Ge5 O14 1.765477 1_555
Ge5 O15 1.774051 1_455
Ge5 O10 1.779486 1_555
Ge6 O19 1.749983 1_455
Ge6 O20 1.757127 1_555
Ge6 O23 1.760134 1_555
Ge6 O2 1.811681 1_556
Ge7 O22 1.749983 1_555
Ge7 O23 1.757127 1_555
Ge7 O20 1.760134 1_565
Ge7 O5 1.811681 1_556
O1 V0 1.881954 1_555
O2 V1 1.955776 1_555
O2 V0 2.159622 1_555
O4 V1 1.881954 1_555
O5 V0 1.955776 1_565
O5 V1 2.159622 1_555
O7 V0 2.049746 1_555
O7 V1 2.104134 1_555
O8 V1 1.806914 1_555
O10 V1 2.049746 1_555
O10 V0 2.104134 1_565
O11 V0 1.806914 1_565
O12 V3 1.806914 1_545
O13 V2 2.049746 1_555
O13 V3 2.104134 1_545
O15 V2 1.806914 1_555
O16 V3 2.049746 1_555
O16 V2 2.104134 1_555
O18 V3 1.955776 1_545
O18 V2 2.159622 1_555
O19 V2 1.881954 1_555
O21 V2 1.955776 1_555
O21 V3 2.159622 1_555
O22 V3 1.881954 1_555
