# generated using pymatgen
data_Li3Fe(SbO3)4
_symmetry_space_group_name_H-M   'P 1'
_cell_length_a   5.58408224
_cell_length_b   10.56941632
_cell_length_c   7.70102612
_cell_angle_alpha   90.12699760
_cell_angle_beta   85.65503868
_cell_angle_gamma   90.15288297
_symmetry_Int_Tables_number   1
_chemical_formula_structural   Li3Fe(SbO3)4
_chemical_formula_sum   'Li6 Fe2 Sb8 O24'
_cell_volume   453.20950538
_cell_formula_units_Z   2
loop_
 _symmetry_equiv_pos_site_id
 _symmetry_equiv_pos_as_xyz
  1  'x, y, z'
loop_
 _atom_site_type_symbol
 _atom_site_label
 _atom_site_symmetry_multiplicity
 _atom_site_fract_x
 _atom_site_fract_y
 _atom_site_fract_z
 _atom_site_occupancy
  Li  Li0  1  0.05701400  0.25017500  0.78465100  1
  Li  Li1  1  0.05629200  0.75033200  0.78431800  1
  Li  Li2  1  0.56762000  0.49970200  0.78376700  1
  Li  Li3  1  0.56762400  0.00050200  0.78367300  1
  Li  Li4  1  0.05793300  0.24886100  0.27911400  1
  Li  Li5  1  0.05734300  0.74945400  0.27913100  1
  Fe  Fe0  1  0.57355200  0.50045600  0.28305500  1
  Fe  Fe1  1  0.57819200  0.99733700  0.28187200  1
  Sb  Sb0  1  0.99751400  0.00069200  0.98990400  1
  Sb  Sb1  1  0.99639400  0.49989300  0.99086300  1
  Sb  Sb2  1  0.48397400  0.24925600  0.50154500  1
  Sb  Sb3  1  0.48690200  0.74954300  0.50305100  1
  Sb  Sb4  1  0.99452000  0.49898200  0.50047000  1
  Sb  Sb5  1  0.99361000  0.99818600  0.50066000  1
  Sb  Sb6  1  0.48874200  0.25145500  0.99168300  1
  Sb  Sb7  1  0.48831700  0.75176200  0.99034400  1
  O  O0  1  0.77947400  0.14737100  0.41453600  1
  O  O1  1  0.78458300  0.64997400  0.41638300  1
  O  O2  1  0.96496100  0.06733800  0.74371900  1
  O  O3  1  0.96472300  0.56683900  0.74445600  1
  O  O4  1  0.16207200  0.16405500  0.04687400  1
  O  O5  1  0.16287400  0.66314800  0.04848900  1
  O  O6  1  0.28892500  0.09820600  0.41506700  1
  O  O7  1  0.29081400  0.59797400  0.41431100  1
  O  O8  1  0.29387800  0.40274500  0.91418200  1
  O  O9  1  0.29350300  0.90269800  0.91234600  1
  O  O10  1  0.46508200  0.18277100  0.74462600  1
  O  O11  1  0.46446400  0.68148000  0.74535200  1
  O  O12  1  0.46034300  0.31422800  0.24339800  1
  O  O13  1  0.46261600  0.81590200  0.24253900  1
  O  O14  1  0.66294900  0.08912800  0.04545800  1
  O  O15  1  0.66176800  0.58947900  0.04601200  1
  O  O16  1  0.65366900  0.41521000  0.54052200  1
  O  O17  1  0.65459100  0.91460500  0.54650600  1
  O  O18  1  0.78803900  0.35033800  0.91364700  1
  O  O19  1  0.78867300  0.85032600  0.91447700  1
  O  O20  1  0.95604300  0.43586400  0.24148500  1
  O  O21  1  0.95842300  0.93686200  0.24070800  1
  O  O22  1  0.15466900  0.33361800  0.54848200  1
  O  O23  1  0.15572300  0.83325300  0.54753000  1
loop_
_geom_bond_atom_site_label_1
_geom_bond_atom_site_label_2
_geom_bond_distance
_geom_bond_site_symmetry_2
Li0 O2 2.028453 1_455
Li0 O18 2.035018 1_455
Li0 O22 2.058467 1_555
Li0 O4 2.332621 1_556
Li0 O8 2.350809 1_555
Li0 O10 2.386676 1_555
Li1 O19 2.032665 1_455
Li1 O3 2.032947 1_455
Li1 O23 2.062201 1_555
Li1 O9 2.345120 1_555
Li1 O5 2.353037 1_556
Li1 O11 2.391429 1_555
Li2 O11 2.035908 1_555
Li2 O8 2.039373 1_555
Li2 O16 2.096638 1_555
Li2 O18 2.282882 1_555
Li2 O3 2.324463 1_555
Li2 O15 2.324889 1_556
Li3 O9 2.039574 1_545
Li3 O10 2.040626 1_555
Li3 O17 2.063137 1_545
Li3 O19 2.294280 1_545
Li3 O14 2.318767 1_556
Li3 O2 2.325029 1_555
Li4 O4 2.044108 1_555
Li4 O20 2.085142 1_455
Li4 O0 2.099156 1_455
Li4 O12 2.345486 1_555
Li4 O6 2.349140 1_555
Li4 O22 2.357214 1_555
Li5 O5 2.042373 1_555
Li5 O1 2.072455 1_455
Li5 O21 2.085526 1_455
Li5 O23 2.349444 1_555
Li5 O7 2.360291 1_555
Li5 O13 2.364306 1_555
Fe0 O15 2.080681 1_555
Fe0 O7 2.083039 1_555
Fe0 O12 2.094551 1_555
Fe0 O20 2.243585 1_555
Fe0 O16 2.255608 1_555
Fe0 O1 2.259759 1_555
Fe1 O13 2.050888 1_555
Fe1 O14 2.086806 1_565
Fe1 O6 2.133359 1_565
Fe1 O21 2.218459 1_555
Fe1 O0 2.231381 1_565
Fe1 O17 2.289435 1_555
O0 Sb2 2.042103 1_555
O0 Sb5 2.119169 1_545
O1 Sb3 2.038199 1_555
O1 Sb4 2.114263 1_555
O2 Sb5 2.003157 1_545
O2 Sb0 2.045094 1_555
O3 Sb4 2.004942 1_555
O3 Sb1 2.047011 1_555
O4 Sb0 2.016793 1_454
O4 Sb6 2.058348 1_554
O5 Sb1 2.022154 1_454
O5 Sb7 2.061499 1_554
O6 Sb5 2.024981 1_445
O6 Sb2 2.067502 1_555
O7 Sb4 2.024829 1_455
O7 Sb3 2.081236 1_555
O8 Sb1 2.005071 1_455
O8 Sb6 2.051616 1_555
O9 Sb0 2.004531 1_465
O9 Sb7 2.049817 1_555
O10 Sb2 1.996177 1_555
O10 Sb6 2.048358 1_555
O11 Sb3 1.996269 1_555
O11 Sb7 2.039727 1_555
O12 Sb6 2.042368 1_554
O12 Sb2 2.118350 1_555
O13 Sb7 2.050515 1_554
O13 Sb3 2.140833 1_555
O14 Sb6 2.033357 1_554
O14 Sb0 2.105583 1_554
O15 Sb7 2.034448 1_554
O15 Sb1 2.110910 1_554
O16 Sb2 2.023997 1_555
O16 Sb4 2.098827 1_555
O17 Sb3 2.017089 1_555
O17 Sb5 2.092869 1_555
O18 Sb6 2.021874 1_555
O18 Sb1 2.072862 1_555
O19 Sb7 2.021030 1_555
O19 Sb0 2.076503 1_565
O20 Sb1 2.042773 1_554
O20 Sb4 2.127748 1_555
O21 Sb0 2.043134 1_564
O21 Sb5 2.125906 1_555
O22 Sb4 2.013100 1_455
O22 Sb2 2.052741 1_555
O23 Sb5 2.012310 1_455
O23 Sb3 2.057078 1_555
