# generated using pymatgen
data_Na3SiSbCO7
_symmetry_space_group_name_H-M   'P 1'
_cell_length_a   7.07228000
_cell_length_b   5.12207100
_cell_length_c   9.48864768
_cell_angle_alpha   88.95548868
_cell_angle_beta   90.00000000
_cell_angle_gamma   90.00000000
_symmetry_Int_Tables_number   1
_chemical_formula_structural   Na3SiSbCO7
_chemical_formula_sum   'Na6 Si2 Sb2 C2 O14'
_cell_volume   343.66649336
_cell_formula_units_Z   2
loop_
 _symmetry_equiv_pos_site_id
 _symmetry_equiv_pos_as_xyz
  1  'x, y, z'
loop_
 _atom_site_type_symbol
 _atom_site_label
 _atom_site_symmetry_multiplicity
 _atom_site_fract_x
 _atom_site_fract_y
 _atom_site_fract_z
 _atom_site_occupancy
  Na  Na0  1  0.25000000  0.77911500  0.91106400  1
  Na  Na1  1  0.00692000  0.25193500  0.75008600  1
  Na  Na2  1  0.49308000  0.25193500  0.75008600  1
  Na  Na3  1  0.50692000  0.74806500  0.24991400  1
  Na  Na4  1  0.99308000  0.74806500  0.24991400  1
  Na  Na5  1  0.75000000  0.22088500  0.08893600  1
  Si  Si0  1  0.25000000  0.71656500  0.59325500  1
  Si  Si1  1  0.75000000  0.28343500  0.40674500  1
  Sb  Sb0  1  0.75000000  0.76619600  0.63379300  1
  Sb  Sb1  1  0.25000000  0.23380400  0.36620700  1
  C  C0  1  0.75000000  0.72524500  0.95038900  1
  C  C1  1  0.25000000  0.27475500  0.04961100  1
  O  O0  1  0.25000000  0.25882100  0.91281700  1
  O  O1  1  0.75000000  0.94269100  0.87424200  1
  O  O2  1  0.75000000  0.49976700  0.89108600  1
  O  O3  1  0.06355300  0.80915700  0.68284100  1
  O  O4  1  0.43644700  0.80915700  0.68284100  1
  O  O5  1  0.25000000  0.39272200  0.58166800  1
  O  O6  1  0.75000000  0.15793800  0.57227400  1
  O  O7  1  0.25000000  0.84206200  0.42772600  1
  O  O8  1  0.75000000  0.60727800  0.41833200  1
  O  O9  1  0.56355300  0.19084300  0.31715900  1
  O  O10  1  0.93644700  0.19084300  0.31715900  1
  O  O11  1  0.25000000  0.50023300  0.10891400  1
  O  O12  1  0.25000000  0.05730900  0.12575800  1
  O  O13  1  0.75000000  0.74117900  0.08718300  1
loop_
_geom_bond_atom_site_label_1
_geom_bond_atom_site_label_2
_geom_bond_distance
_geom_bond_site_symmetry_2
Na0 O11 2.338177 1_556
Na0 O0 2.457448 1_565
Na0 O12 2.507241 1_566
Na0 O4 2.537668 1_555
Na0 O3 2.537668 1_555
Na0 O0 2.664731 1_555
Na1 O0 2.311466 1_555
Na1 O3 2.400804 1_545
Na1 O5 2.446876 1_555
Na1 O6 2.531713 1_455
Na1 O2 2.600928 1_455
Na1 O1 2.670264 1_445
Na1 O3 2.940614 1_555
Na2 O0 2.311466 1_555
Na2 O4 2.400804 1_545
Na2 O5 2.446876 1_555
Na2 O6 2.531713 1_555
Na2 O2 2.600928 1_555
Na2 O1 2.670264 1_545
Na2 O4 2.940614 1_555
Na3 O13 2.311466 1_555
Na3 O9 2.400804 1_565
Na3 O8 2.446876 1_555
Na3 O7 2.531713 1_555
Na3 O11 2.600928 1_555
Na3 O12 2.670264 1_565
Na3 O9 2.940614 1_555
Na4 O13 2.311466 1_555
Na4 O10 2.400804 1_565
Na4 O8 2.446876 1_555
Na4 O7 2.531713 1_655
Na4 O11 2.600928 1_655
Na4 O12 2.670264 1_665
Na4 O10 2.940614 1_555
Na5 O2 2.338177 1_554
Na5 O13 2.457448 1_545
Na5 O1 2.507241 1_544
Na5 O10 2.537668 1_555
Na5 O9 2.537668 1_555
Na5 O13 2.664731 1_555
C0 O2 1.293892 1_555
C0 O13 1.302037 1_556
C0 O1 1.316513 1_555
C1 O11 1.293892 1_555
C1 O0 1.302037 1_554
C1 O12 1.316513 1_555
O1 Sb0 2.469384 1_555
O2 Sb0 2.775086 1_555
O3 Si0 1.643450 1_555
O3 Sb0 2.277326 1_455
O4 Si0 1.643450 1_555
O4 Sb0 2.277326 1_555
O5 Si0 1.664385 1_555
O5 Sb1 2.214263 1_555
O6 Si1 1.686214 1_555
O6 Sb0 2.079472 1_545
O7 Si0 1.686214 1_555
O7 Sb1 2.079472 1_565
O8 Si1 1.664385 1_555
O8 Sb0 2.214263 1_555
O9 Si1 1.643450 1_555
O9 Sb1 2.277326 1_555
O10 Si1 1.643450 1_555
O10 Sb1 2.277326 1_655
O11 Sb1 2.775086 1_555
O12 Sb1 2.469384 1_555
