# generated using pymatgen
data_Li5BiO4
_symmetry_space_group_name_H-M   'P 1'
_cell_length_a   9.32720600
_cell_length_b   9.70163800
_cell_length_c   9.95823100
_cell_angle_alpha   90.00000000
_cell_angle_beta   90.00000000
_cell_angle_gamma   90.00000000
_symmetry_Int_Tables_number   1
_chemical_formula_structural   Li5BiO4
_chemical_formula_sum   'Li40 Bi8 O32'
_cell_volume   901.11211924
_cell_formula_units_Z   8
loop_
 _symmetry_equiv_pos_site_id
 _symmetry_equiv_pos_as_xyz
  1  'x, y, z'
loop_
 _atom_site_type_symbol
 _atom_site_label
 _atom_site_symmetry_multiplicity
 _atom_site_fract_x
 _atom_site_fract_y
 _atom_site_fract_z
 _atom_site_occupancy
  Li  Li0  1  0.11534000  0.58178500  0.14131800  1
  Li  Li1  1  0.11534000  0.91821500  0.64131800  1
  Li  Li2  1  0.11969500  0.13512300  0.84938000  1
  Li  Li3  1  0.11969500  0.36487700  0.34938000  1
  Li  Li4  1  0.12494900  0.85486500  0.40503100  1
  Li  Li5  1  0.12494900  0.64513500  0.90503100  1
  Li  Li6  1  0.13615800  0.84440000  0.14579200  1
  Li  Li7  1  0.13615800  0.65560000  0.64579200  1
  Li  Li8  1  0.17016500  0.11072000  0.41390200  1
  Li  Li9  1  0.17016500  0.38928000  0.91390200  1
  Li  Li10  1  0.32983500  0.88928000  0.91390200  1
  Li  Li11  1  0.32983500  0.61072000  0.41390200  1
  Li  Li12  1  0.36384200  0.15560000  0.64579200  1
  Li  Li13  1  0.36384200  0.34440000  0.14579200  1
  Li  Li14  1  0.37505100  0.14513500  0.90503100  1
  Li  Li15  1  0.37505100  0.35486500  0.40503100  1
  Li  Li16  1  0.38030500  0.63512300  0.84938000  1
  Li  Li17  1  0.38030500  0.86487700  0.34938000  1
  Li  Li18  1  0.38466000  0.08178500  0.14131800  1
  Li  Li19  1  0.38466000  0.41821500  0.64131800  1
  Li  Li20  1  0.61534000  0.58178500  0.35868200  1
  Li  Li21  1  0.61534000  0.91821500  0.85868200  1
  Li  Li22  1  0.61969500  0.13512300  0.65062000  1
  Li  Li23  1  0.61969500  0.36487700  0.15062000  1
  Li  Li24  1  0.62494900  0.64513500  0.59496900  1
  Li  Li25  1  0.62494900  0.85486500  0.09496900  1
  Li  Li26  1  0.63615800  0.65560000  0.85420800  1
  Li  Li27  1  0.63615800  0.84440000  0.35420800  1
  Li  Li28  1  0.67016500  0.11072000  0.08609800  1
  Li  Li29  1  0.67016500  0.38928000  0.58609800  1
  Li  Li30  1  0.82983500  0.61072000  0.08609800  1
  Li  Li31  1  0.82983500  0.88928000  0.58609800  1
  Li  Li32  1  0.86384200  0.34440000  0.35420800  1
  Li  Li33  1  0.86384200  0.15560000  0.85420800  1
  Li  Li34  1  0.87505100  0.14513500  0.59496900  1
  Li  Li35  1  0.87505100  0.35486500  0.09496900  1
  Li  Li36  1  0.88030500  0.63512300  0.65062000  1
  Li  Li37  1  0.88030500  0.86487700  0.15062000  1
  Li  Li38  1  0.88466000  0.08178500  0.35868200  1
  Li  Li39  1  0.88466000  0.41821500  0.85868200  1
  Bi  Bi0  1  0.07654000  0.14813300  0.14234300  1
  Bi  Bi1  1  0.07654000  0.35186700  0.64234300  1
  Bi  Bi2  1  0.42346000  0.64813300  0.14234300  1
  Bi  Bi3  1  0.42346000  0.85186700  0.64234300  1
  Bi  Bi4  1  0.57654000  0.14813300  0.35765700  1
  Bi  Bi5  1  0.57654000  0.35186700  0.85765700  1
  Bi  Bi6  1  0.92346000  0.64813300  0.35765700  1
  Bi  Bi7  1  0.92346000  0.85186700  0.85765700  1
  O  O0  1  0.99955100  0.22523600  0.44989700  1
  O  O1  1  0.99955100  0.27476400  0.94989700  1
  O  O2  1  0.02229500  0.96014400  0.26668600  1
  O  O3  1  0.02229500  0.53985600  0.76668600  1
  O  O4  1  0.22414500  0.03345100  0.01175700  1
  O  O5  1  0.22414500  0.46654900  0.51175700  1
  O  O6  1  0.25918500  0.22385800  0.26700100  1
  O  O7  1  0.25918500  0.27614200  0.76700100  1
  O  O8  1  0.24081500  0.72385800  0.26700100  1
  O  O9  1  0.24081500  0.77614200  0.76700100  1
  O  O10  1  0.27585500  0.53345100  0.01175700  1
  O  O11  1  0.27585500  0.96654900  0.51175700  1
  O  O12  1  0.47770500  0.46014400  0.26668600  1
  O  O13  1  0.47770500  0.03985600  0.76668600  1
  O  O14  1  0.50044900  0.72523600  0.44989700  1
  O  O15  1  0.50044900  0.77476400  0.94989700  1
  O  O16  1  0.49955100  0.22523600  0.05010300  1
  O  O17  1  0.49955100  0.27476400  0.55010300  1
  O  O18  1  0.52229500  0.96014400  0.23331400  1
  O  O19  1  0.52229500  0.53985600  0.73331400  1
  O  O20  1  0.72414500  0.03345100  0.48824300  1
  O  O21  1  0.72414500  0.46654900  0.98824300  1
  O  O22  1  0.75918500  0.22385800  0.23299900  1
  O  O23  1  0.75918500  0.27614200  0.73299900  1
  O  O24  1  0.74081500  0.72385800  0.23299900  1
  O  O25  1  0.74081500  0.77614200  0.73299900  1
  O  O26  1  0.77585500  0.53345100  0.48824300  1
  O  O27  1  0.77585500  0.96654900  0.98824300  1
  O  O28  1  0.97770500  0.03985600  0.73331400  1
  O  O29  1  0.97770500  0.46014400  0.23331400  1
  O  O30  1  0.00044900  0.72523600  0.05010300  1
  O  O31  1  0.00044900  0.77476400  0.55010300  1
loop_
_geom_bond_atom_site_label_1
_geom_bond_atom_site_label_2
_geom_bond_distance
_geom_bond_site_symmetry_2
Li0 O29 1.969762 1_455
Li0 O30 1.977445 1_555
Li0 O10 2.031249 1_555
Li0 O8 2.199080 1_555
Li0 Li5 2.433593 1_554
Li1 O28 1.969762 1_465
Li1 O31 1.977445 1_555
Li1 O11 2.031249 1_555
Li1 O9 2.199080 1_555
Li1 Li4 2.433593 1_555
Li2 O28 1.985973 1_455
Li2 O1 2.023127 1_455
Li2 O7 2.058506 1_555
Li2 O4 2.129958 1_556
Li2 Li33 2.395131 1_455
Li3 O29 1.985973 1_455
Li3 O0 2.023127 1_455
Li3 O6 2.058506 1_555
Li3 O5 2.129958 1_555
Li3 Li32 2.395131 1_455
Li4 O2 1.964167 1_555
Li4 O31 2.009830 1_555
Li4 O11 2.069953 1_555
Li4 O8 2.161635 1_555
Li4 Li8 2.519335 1_565
Li5 O3 1.964167 1_555
Li5 O30 2.009830 1_556
Li5 O10 2.069953 1_556
Li5 O9 2.161635 1_555
Li5 Li9 2.519335 1_555
Li6 O8 1.943559 1_555
Li6 O2 1.959124 1_555
Li6 O30 1.961314 1_555
Li6 O4 2.412261 1_565
Li7 O9 1.943559 1_555
Li7 O3 1.959124 1_555
Li7 O31 1.961314 1_555
Li7 O5 2.412261 1_555
Li8 O11 1.969191 1_545
Li8 O0 1.973624 1_455
Li8 O6 2.008529 1_555
Li8 O2 2.487057 1_545
Li9 O10 1.969191 1_556
Li9 O1 1.973624 1_455
Li9 O7 2.008529 1_555
Li9 O3 2.487057 1_555
Li10 O4 1.969191 1_566
Li10 O15 1.973624 1_555
Li10 O9 2.008529 1_555
Li10 O13 2.487057 1_565
Li10 Li14 2.519335 1_565
Li11 O5 1.969191 1_555
Li11 O14 1.973624 1_555
Li11 O8 2.008529 1_555
Li11 O12 2.487057 1_555
Li11 Li15 2.519335 1_555
Li12 O7 1.943559 1_555
Li12 O13 1.959124 1_555
Li12 O17 1.961314 1_555
Li12 Li22 2.395131 1_555
Li12 O11 2.412261 1_545
Li13 O6 1.943559 1_555
Li13 O12 1.959124 1_555
Li13 O16 1.961314 1_555
Li13 Li23 2.395131 1_555
Li13 O10 2.412261 1_555
Li14 O13 1.964167 1_555
Li14 O16 2.009830 1_556
Li14 O4 2.069953 1_556
Li14 O7 2.161635 1_555
Li14 Li18 2.433593 1_556
Li14 Li2 2.447310 1_555
Li15 O12 1.964167 1_555
Li15 O17 2.009830 1_555
Li15 O5 2.069953 1_555
Li15 O6 2.161635 1_555
Li15 Li19 2.433593 1_555
Li15 Li3 2.447310 1_555
Li16 O19 1.985973 1_555
Li16 O15 2.023127 1_555
Li16 O9 2.058506 1_555
Li16 O10 2.129958 1_556
Li16 Li26 2.395131 1_555
Li16 Li5 2.447310 1_555
Li17 O18 1.985973 1_555
Li17 O14 2.023127 1_555
Li17 O8 2.058506 1_555
Li17 O11 2.129958 1_555
Li17 Li27 2.395131 1_555
Li17 Li4 2.447310 1_555
Li18 O18 1.969762 1_545
Li18 O16 1.977445 1_555
Li18 O4 2.031249 1_555
Li18 O6 2.199080 1_555
Li19 O19 1.969762 1_555
Li19 O17 1.977445 1_555
Li19 O5 2.031249 1_555
Li19 O7 2.199080 1_555
Li20 O12 1.969762 1_555
Li20 O14 1.977445 1_555
Li20 O26 2.031249 1_555
Li20 O24 2.199080 1_555
Li20 Li24 2.433593 1_555
Li21 O13 1.969762 1_565
Li21 O15 1.977445 1_555
Li21 O27 2.031249 1_555
Li21 O25 2.199080 1_555
Li21 Li25 2.433593 1_556
Li22 O13 1.985973 1_555
Li22 O17 2.023127 1_555
Li22 O23 2.058506 1_555
Li22 O20 2.129958 1_555
Li22 Li34 2.447310 1_555
Li23 O12 1.985973 1_555
Li23 O16 2.023127 1_555
Li23 O22 2.058506 1_555
Li23 O21 2.129958 1_554
Li23 Li35 2.447310 1_555
Li24 O19 1.964167 1_555
Li24 O14 2.009830 1_555
Li24 O26 2.069953 1_555
Li24 O25 2.161635 1_555
Li24 Li36 2.447310 1_555
Li24 Li29 2.519335 1_555
Li25 O18 1.964167 1_555
Li25 O15 2.009830 1_554
Li25 O27 2.069953 1_554
Li25 O24 2.161635 1_555
Li25 Li37 2.447310 1_555
Li25 Li28 2.519335 1_565
Li26 O25 1.943559 1_555
Li26 O19 1.959124 1_555
Li26 O15 1.961314 1_555
Li26 O21 2.412261 1_555
Li27 O24 1.943559 1_555
Li27 O18 1.959124 1_555
Li27 O14 1.961314 1_555
Li27 O20 2.412261 1_565
Li28 O27 1.969191 1_544
Li28 O16 1.973624 1_555
Li28 O22 2.008529 1_555
Li28 O18 2.487057 1_545
Li29 O26 1.969191 1_555
Li29 O17 1.973624 1_555
Li29 O23 2.008529 1_555
Li29 O19 2.487057 1_555
Li30 O21 1.969191 1_554
Li30 O30 1.973624 1_655
Li30 O24 2.008529 1_555
Li30 O29 2.487057 1_555
Li30 Li35 2.519335 1_555
Li31 O20 1.969191 1_565
Li31 O31 1.973624 1_655
Li31 O25 2.008529 1_555
Li31 O28 2.487057 1_565
Li31 Li34 2.519335 1_565
Li32 O22 1.943559 1_555
Li32 O29 1.959124 1_555
Li32 O0 1.961314 1_555
Li32 O26 2.412261 1_555
Li33 O23 1.943559 1_555
Li33 O28 1.959124 1_555
Li33 O1 1.961314 1_555
Li33 O27 2.412261 1_545
Li34 O28 1.964167 1_555
Li34 O0 2.009830 1_555
Li34 O20 2.069953 1_555
Li34 O23 2.161635 1_555
Li34 Li38 2.433593 1_555
Li35 O29 1.964167 1_555
Li35 O1 2.009830 1_554
Li35 O21 2.069953 1_554
Li35 O22 2.161635 1_555
Li35 Li39 2.433593 1_554
Li36 O3 1.985973 1_655
Li36 O31 2.023127 1_655
Li36 O25 2.058506 1_555
Li36 O26 2.129958 1_555
Li36 Li7 2.395131 1_655
Li37 O2 1.985973 1_655
Li37 O30 2.023127 1_655
Li37 O24 2.058506 1_555
Li37 O27 2.129958 1_554
Li37 Li6 2.395131 1_655
Li38 O2 1.969762 1_645
Li38 O0 1.977445 1_555
Li38 O20 2.031249 1_555
Li38 O22 2.199080 1_555
Li39 O3 1.969762 1_655
Li39 O1 1.977445 1_555
Li39 O21 2.031249 1_555
Li39 O23 2.199080 1_555
Bi0 O4 2.196443 1_555
Bi0 O6 2.232234 1_555
Bi0 O2 2.261740 1_545
Bi0 O1 2.386967 1_454
Bi0 Li35 2.788732 1_455
Bi1 O5 2.196443 1_555
Bi1 O7 2.232234 1_555
Bi1 O3 2.261740 1_555
Bi1 O0 2.386967 1_455
Bi1 Li34 2.788732 1_455
Bi2 O10 2.196443 1_555
Bi2 O8 2.232234 1_555
Bi2 O12 2.261740 1_555
Bi2 O15 2.386967 1_554
Bi2 Li25 2.788732 1_555
Bi3 O11 2.196443 1_555
Bi3 O9 2.232234 1_555
Bi3 O13 2.261740 1_565
Bi3 O14 2.386967 1_555
Bi3 Li24 2.788732 1_555
Bi4 O20 2.196443 1_555
Bi4 O22 2.232234 1_555
Bi4 O18 2.261740 1_545
Bi4 O17 2.386967 1_555
Bi4 Li15 2.788732 1_555
Bi5 O21 2.196443 1_555
Bi5 O23 2.232234 1_555
Bi5 O19 2.261740 1_555
Bi5 O16 2.386967 1_556
Bi5 Li14 2.788732 1_555
Bi6 O26 2.196443 1_555
Bi6 O24 2.232234 1_555
Bi6 O29 2.261740 1_555
Bi6 O31 2.386967 1_655
Bi6 Li4 2.788732 1_655
Bi7 O27 2.196443 1_555
Bi7 O25 2.232234 1_555
Bi7 O28 2.261740 1_565
Bi7 O30 2.386967 1_656
Bi7 Li5 2.788732 1_655
