# generated using pymatgen
data_Li4Ti2Mn3Ni3O16
_symmetry_space_group_name_H-M   'P 1'
_cell_length_a   5.87065603
_cell_length_b   5.76947978
_cell_length_c   9.46772308
_cell_angle_alpha   89.99259753
_cell_angle_beta   91.84551263
_cell_angle_gamma   119.43798293
_symmetry_Int_Tables_number   1
_chemical_formula_structural   Li4Ti2Mn3Ni3O16
_chemical_formula_sum   'Li4 Ti2 Mn3 Ni3 O16'
_cell_volume   279.08420764
_cell_formula_units_Z   1
loop_
 _symmetry_equiv_pos_site_id
 _symmetry_equiv_pos_as_xyz
  1  'x, y, z'
loop_
 _atom_site_type_symbol
 _atom_site_label
 _atom_site_symmetry_multiplicity
 _atom_site_fract_x
 _atom_site_fract_y
 _atom_site_fract_z
 _atom_site_occupancy
  Li  Li0  1  0.32102100  0.66051400  0.89468700  1
  Li  Li1  1  0.99000100  0.99504300  0.99263200  1
  Li  Li2  1  0.00489100  0.00244800  0.49627400  1
  Li  Li3  1  0.66468100  0.33233500  0.39458600  1
  Ti  Ti0  1  0.34396200  0.67205100  0.49703900  1
  Ti  Ti1  1  0.66335700  0.33168400  0.99428800  1
  Mn  Mn0  1  0.17456300  0.83186900  0.21571600  1
  Mn  Mn1  1  0.17459100  0.34271200  0.21572500  1
  Mn  Mn2  1  0.34533000  0.17267800  0.71777900  1
  Ni  Ni0  1  0.65985300  0.82995800  0.21304900  1
  Ni  Ni1  1  0.83002800  0.66140400  0.71415000  1
  Ni  Ni2  1  0.83004500  0.16869700  0.71414800  1
  O  O0  1  0.18735900  0.84443300  0.59526700  1
  O  O1  1  0.03841400  0.51914700  0.33279500  1
  O  O2  1  0.31338300  0.65677800  0.10636700  1
  O  O3  1  0.01521900  0.00754000  0.30759700  1
  O  O4  1  0.01096100  0.00563700  0.80418200  1
  O  O5  1  0.18756300  0.34300300  0.59522700  1
  O  O6  1  0.46747700  0.96106100  0.34235200  1
  O  O7  1  0.46756200  0.50653400  0.34229500  1
  O  O8  1  0.32644300  0.16325000  0.10265100  1
  O  O9  1  0.67989200  0.84012100  0.59536500  1
  O  O10  1  0.50234500  0.46887000  0.84493500  1
  O  O11  1  0.50225300  0.03340100  0.84492500  1
  O  O12  1  0.65948900  0.32961600  0.61327700  1
  O  O13  1  0.84450400  0.66527400  0.09164100  1
  O  O14  1  0.95038000  0.47512200  0.83720800  1
  O  O15  1  0.84443700  0.17912000  0.09167900  1
loop_
_geom_bond_atom_site_label_1
_geom_bond_atom_site_label_2
_geom_bond_distance
_geom_bond_site_symmetry_2
Li0 O11 1.940207 1_565
Li0 O10 1.940858 1_555
Li0 O14 1.952164 1_455
Li0 O2 2.005949 1_556
Li1 O4 1.791351 1_665
Li1 O15 1.918728 1_566
Li1 O13 1.918811 1_556
Li1 O8 1.977766 1_666
Li2 O3 1.789069 1_555
Li2 O0 1.937031 1_545
Li2 O5 1.937233 1_555
Li2 O9 1.938090 1_445
Li3 O6 1.923289 1_545
Li3 O7 1.923683 1_555
Li3 O1 2.018870 1_655
Li3 O12 2.071655 1_555
Mn0 O6 1.886166 1_555
Mn0 O2 1.902711 1_555
Mn0 O3 1.908834 1_565
Mn0 O1 1.939555 1_555
Mn0 O8 1.995380 1_565
Mn0 O13 2.020226 1_455
Mn1 O7 1.886032 1_555
Mn1 O2 1.903108 1_555
Mn1 O3 1.909179 1_555
Mn1 O1 1.939362 1_555
Mn1 O8 1.995476 1_555
Mn1 O15 2.020469 1_455
Mn2 O11 1.897224 1_555
Mn2 O10 1.897350 1_555
Mn2 O12 1.917308 1_555
Mn2 O4 1.922208 1_555
Mn2 O5 1.998730 1_555
Mn2 O0 1.999211 1_545
Ni0 O3 1.995567 1_665
Ni0 O2 2.006474 1_555
Ni0 O7 2.066744 1_555
Ni0 O6 2.067677 1_555
Ni0 O15 2.118175 1_565
Ni0 O13 2.119455 1_555
Ni1 O12 1.906259 1_555
Ni1 O4 1.915127 1_665
Ni1 O14 1.924781 1_555
Ni1 O9 1.983431 1_555
Ni1 O10 2.126124 1_555
Ni1 O0 2.181032 1_655
Ni2 O12 1.904868 1_555
Ni2 O4 1.913990 1_655
Ni2 O14 1.924032 1_555
Ni2 O9 1.982323 1_545
Ni2 O11 2.126541 1_555
Ni2 O5 2.182062 1_655
O0 Ti0 1.911372 1_555
O1 Ti0 2.163134 1_555
O5 Ti0 1.911129 1_555
O6 Ti0 2.080933 1_555
O7 Ti0 2.082025 1_555
O8 Ti1 2.037191 1_554
O9 Ti0 1.923129 1_555
O10 Ti1 2.041682 1_555
O11 Ti1 2.042173 1_555
O13 Ti1 1.900041 1_554
O14 Ti1 2.127500 1_555
O15 Ti1 1.900400 1_554
