# generated using pymatgen
data_LiNiPO4
_symmetry_space_group_name_H-M   'P 1'
_cell_length_a   5.22103000
_cell_length_b   7.50877354
_cell_length_c   8.63898682
_cell_angle_alpha   79.48903053
_cell_angle_beta   92.41153144
_cell_angle_gamma   82.51851109
_symmetry_Int_Tables_number   1
_chemical_formula_structural   LiNiPO4
_chemical_formula_sum   'Li4 Ni4 P4 O16'
_cell_volume   329.40733955
_cell_formula_units_Z   4
loop_
 _symmetry_equiv_pos_site_id
 _symmetry_equiv_pos_as_xyz
  1  'x, y, z'
loop_
 _atom_site_type_symbol
 _atom_site_label
 _atom_site_symmetry_multiplicity
 _atom_site_fract_x
 _atom_site_fract_y
 _atom_site_fract_z
 _atom_site_occupancy
  Li  Li0  1  0.11974700  0.97308500  0.35990000  1
  Li  Li1  1  0.88029200  0.02660900  0.64014100  1
  Li  Li2  1  0.29067100  0.46561400  0.17092700  1
  Li  Li3  1  0.70949700  0.53426600  0.82911900  1
  Ni  Ni0  1  0.71169000  0.79887600  0.10671700  1
  Ni  Ni1  1  0.71824300  0.36918100  0.41509000  1
  Ni  Ni2  1  0.28862800  0.20098900  0.89330900  1
  Ni  Ni3  1  0.28158700  0.63045700  0.58491300  1
  P  P0  1  0.28099300  0.28352700  0.53252600  1
  P  P1  1  0.71891000  0.71626700  0.46755300  1
  P  P2  1  0.18954400  0.78145900  0.91144900  1
  P  P3  1  0.81058500  0.21880700  0.08849000  1
  O  O0  1  0.05882400  0.18861600  0.47450700  1
  O  O1  1  0.94110400  0.81119900  0.52553800  1
  O  O2  1  0.07787900  0.28985800  0.05845600  1
  O  O3  1  0.92177200  0.71120400  0.94115100  1
  O  O4  1  0.20675800  0.36152200  0.68346200  1
  O  O5  1  0.79321200  0.63841800  0.31655900  1
  O  O6  1  0.30647100  0.45856600  0.40559500  1
  O  O7  1  0.69338400  0.54119300  0.59447000  1
  O  O8  1  0.13504900  0.98911300  0.83637600  1
  O  O9  1  0.86524100  0.01124300  0.16369300  1
  O  O10  1  0.34330500  0.67411200  0.80139000  1
  O  O11  1  0.65662500  0.32592900  0.19859300  1
  O  O12  1  0.35364200  0.74301900  0.07219600  1
  O  O13  1  0.64635300  0.25699100  0.92780400  1
  O  O14  1  0.54634800  0.16427500  0.55742700  1
  O  O15  1  0.45364700  0.83560400  0.44264900  1
loop_
_geom_bond_atom_site_label_1
_geom_bond_atom_site_label_2
_geom_bond_distance
_geom_bond_site_symmetry_2
Li0 O15 1.942432 1_555
Li0 O1 2.041586 1_455
Li0 O0 2.043927 1_565
Li0 O9 2.062767 1_465
Li1 O14 1.943031 1_555
Li1 O0 2.041717 1_655
Li1 O1 2.043082 1_545
Li1 O8 2.064206 1_645
Li2 O6 2.016227 1_555
Li2 O11 2.038648 1_555
Li2 O2 2.163060 1_555
Li2 O12 2.174418 1_555
Li3 O7 2.016204 1_555
Li3 O10 2.040163 1_555
Li3 O3 2.166219 1_555
Li3 O13 2.173709 1_555
Ni0 O5 1.980850 1_555
Ni0 O12 1.990559 1_555
Ni0 O3 1.992433 1_554
Ni0 O9 2.003461 1_565
Ni1 O11 1.976168 1_555
Ni1 O0 2.074878 1_655
Ni1 O14 2.108777 1_555
Ni1 O5 2.138001 1_555
Ni1 O6 2.160665 1_555
Ni1 O7 2.188619 1_555
Ni2 O4 1.981295 1_555
Ni2 O13 1.989299 1_555
Ni2 O2 1.994927 1_556
Ni2 O8 2.000103 1_545
Ni3 O10 1.977162 1_555
Ni3 O1 2.075115 1_455
Ni3 O15 2.110181 1_555
Ni3 O4 2.135768 1_555
Ni3 O7 2.160599 1_555
Ni3 O6 2.187536 1_555
O0 P0 1.549605 1_555
O1 P1 1.549695 1_555
O2 P3 1.572693 1_455
O3 P2 1.572106 1_655
O4 P0 1.566997 1_555
O5 P1 1.566995 1_555
O6 P0 1.574662 1_555
O7 P1 1.574840 1_555
O8 P2 1.559730 1_555
O9 P3 1.559405 1_555
O10 P2 1.540629 1_555
O11 P3 1.540447 1_555
O12 P2 1.560465 1_554
O13 P3 1.560462 1_556
O14 P0 1.532668 1_555
O15 P1 1.532555 1_555
