# generated using pymatgen
data_Li4Mn5Sb3O16
_symmetry_space_group_name_H-M   'P 1'
_cell_length_a   6.19055433
_cell_length_b   6.19055433
_cell_length_c   9.93039499
_cell_angle_alpha   89.67469059
_cell_angle_beta   89.67469059
_cell_angle_gamma   59.32982061
_symmetry_Int_Tables_number   1
_chemical_formula_structural   Li4Mn5Sb3O16
_chemical_formula_sum   'Li4 Mn5 Sb3 O16'
_cell_volume   327.32132826
_cell_formula_units_Z   1
loop_
 _symmetry_equiv_pos_site_id
 _symmetry_equiv_pos_as_xyz
  1  'x, y, z'
loop_
 _atom_site_type_symbol
 _atom_site_label
 _atom_site_symmetry_multiplicity
 _atom_site_fract_x
 _atom_site_fract_y
 _atom_site_fract_z
 _atom_site_occupancy
  Li  Li0  1  0.66228400  0.66228400  0.12689400  1
  Li  Li1  1  0.99014900  0.99014900  0.00777100  1
  Li  Li2  1  0.99747800  0.99747800  0.49333200  1
  Li  Li3  1  0.32432400  0.32432400  0.60141800  1
  Mn  Mn0  1  0.67646500  0.67646500  0.48879700  1
  Mn  Mn1  1  0.83177900  0.83177900  0.78340300  1
  Mn  Mn2  1  0.34431000  0.34431000  0.01425500  1
  Mn  Mn3  1  0.16984900  0.66393700  0.28562000  1
  Mn  Mn4  1  0.66393700  0.16984900  0.28562000  1
  Sb  Sb0  1  0.33745700  0.83062800  0.78413700  1
  Sb  Sb1  1  0.83062800  0.33745700  0.78413700  1
  Sb  Sb2  1  0.17122300  0.17122300  0.28393200  1
  O  O0  1  0.31505600  0.85006300  0.39546900  1
  O  O1  1  0.51131500  0.51131500  0.67006800  1
  O  O2  1  0.65230400  0.65230400  0.90252800  1
  O  O3  1  0.01156100  0.01156100  0.67709700  1
  O  O4  1  0.01162100  0.01162100  0.18269300  1
  O  O5  1  0.85006300  0.31505600  0.39546900  1
  O  O6  1  0.51034500  0.96313200  0.67223800  1
  O  O7  1  0.96313200  0.51034500  0.67223800  1
  O  O8  1  0.15361000  0.15361000  0.89691500  1
  O  O9  1  0.84951000  0.84951000  0.38753500  1
  O  O10  1  0.03272700  0.48307700  0.16736600  1
  O  O11  1  0.48307700  0.03272700  0.16736600  1
  O  O12  1  0.32285700  0.32285700  0.40187600  1
  O  O13  1  0.16126400  0.69144700  0.89210400  1
  O  O14  1  0.47954700  0.47954700  0.17982300  1
  O  O15  1  0.69144700  0.16126400  0.89210400  1
loop_
_geom_bond_atom_site_label_1
_geom_bond_atom_site_label_2
_geom_bond_distance
_geom_bond_site_symmetry_2
Li0 O10 2.015238 1_655
Li0 O11 2.015238 1_565
Li0 O14 2.031682 1_555
Li0 O2 2.231329 1_554
Li1 O4 1.753833 1_665
Li1 O15 1.967916 1_564
Li1 O13 1.967916 1_654
Li1 O8 2.068609 1_664
Li2 O3 1.832124 1_665
Li2 O9 1.913050 1_555
Li2 O5 1.949451 1_565
Li2 O0 1.949451 1_655
Li3 O12 1.981697 1_555
Li3 O6 2.045671 1_545
Li3 O7 2.045671 1_455
Li3 O1 2.128305 1_555
Mn0 O9 2.110112 1_555
Mn0 O0 2.139804 1_555
Mn0 O5 2.139804 1_555
Mn0 O6 2.383032 1_555
Mn0 O7 2.383032 1_555
Mn0 O1 2.520985 1_555
Mn1 O6 2.050217 1_555
Mn1 O7 2.050217 1_555
Mn1 O15 2.070477 1_565
Mn1 O13 2.070477 1_655
Mn1 O3 2.197435 1_665
Mn1 O2 2.257822 1_555
Mn2 O14 2.202574 1_555
Mn2 O13 2.207992 1_554
Mn2 O15 2.207992 1_554
Mn2 O10 2.249748 1_555
Mn2 O11 2.249748 1_555
Mn2 O8 2.366044 1_554
Mn3 O14 1.959726 1_555
Mn3 O9 1.985660 1_455
Mn3 O10 2.085418 1_555
Mn3 O0 2.099445 1_555
Mn3 O4 2.114791 1_565
Mn3 O12 2.152365 1_555
Mn4 O14 1.959726 1_555
Mn4 O9 1.985660 1_545
Mn4 O11 2.085418 1_555
Mn4 O5 2.099445 1_555
Mn4 O4 2.114791 1_655
Mn4 O12 2.152365 1_555
O0 Sb2 2.037786 1_565
O1 Sb1 2.046963 1_555
O1 Sb0 2.046963 1_555
O2 Sb1 2.053279 1_555
O2 Sb0 2.053279 1_555
O3 Sb0 2.039638 1_545
O3 Sb1 2.039638 1_455
O4 Sb2 1.995385 1_555
O5 Sb2 2.037786 1_655
O6 Sb0 1.981133 1_555
O7 Sb1 1.981133 1_555
O8 Sb1 2.058329 1_455
O8 Sb0 2.058329 1_545
O10 Sb2 2.024672 1_555
O11 Sb2 2.024672 1_555
O12 Sb2 2.014449 1_555
O13 Sb0 2.004138 1_555
O15 Sb1 2.004138 1_555
