# generated using pymatgen
data_VOF2
_symmetry_space_group_name_H-M   'P 1'
_cell_length_a   5.20700200
_cell_length_b   5.20695151
_cell_length_c   13.38601195
_cell_angle_alpha   89.70889723
_cell_angle_beta   91.05645681
_cell_angle_gamma   119.10399539
_symmetry_Int_Tables_number   1
_chemical_formula_structural   VOF2
_chemical_formula_sum   'V6 O6 F12'
_cell_volume   317.04852194
_cell_formula_units_Z   6
loop_
 _symmetry_equiv_pos_site_id
 _symmetry_equiv_pos_as_xyz
  1  'x, y, z'
loop_
 _atom_site_type_symbol
 _atom_site_label
 _atom_site_symmetry_multiplicity
 _atom_site_fract_x
 _atom_site_fract_y
 _atom_site_fract_z
 _atom_site_occupancy
  V  V0  1  0.68039500  0.31328300  0.83691900  1
  V  V1  1  0.67948400  0.39772500  0.33274800  1
  V  V2  1  0.31960500  0.68671700  0.16308100  1
  V  V3  1  0.00000000  0.00000000  0.00000000  1
  V  V4  1  0.32051600  0.60227500  0.66725200  1
  V  V5  1  0.00000000  0.00000000  0.50000000  1
  O  O0  1  0.09635000  0.33461600  0.58615200  1
  O  O1  1  0.57952600  0.58474000  0.25244100  1
  O  O2  1  0.90153100  0.24036900  0.91233800  1
  O  O3  1  0.09846900  0.75963100  0.08766200  1
  O  O4  1  0.42047400  0.41526000  0.74755900  1
  O  O5  1  0.90365000  0.66538400  0.41384800  1
  F  F0  1  0.27044700  0.34997600  0.08220500  1
  F  F1  1  0.67800400  0.94327900  0.08968300  1
  F  F2  1  0.58395600  0.99036000  0.74326600  1
  F  F3  1  0.34024100  0.26962000  0.41295500  1
  F  F4  1  0.41604400  0.00964000  0.25673400  1
  F  F5  1  0.32199600  0.05672100  0.91031700  1
  F  F6  1  0.65975900  0.73038000  0.58704500  1
  F  F7  1  0.25444000  0.90388800  0.58376300  1
  F  F8  1  0.74556000  0.09611200  0.41623700  1
  F  F9  1  0.00826600  0.58601300  0.74801300  1
  F  F10  1  0.99173400  0.41398700  0.25198700  1
  F  F11  1  0.72955300  0.65002400  0.91779500  1
loop_
_geom_bond_atom_site_label_1
_geom_bond_atom_site_label_2
_geom_bond_distance
_geom_bond_site_symmetry_2
O0 V4 1.693956 1_555
O0 V5 1.940644 1_555
O1 V1 1.684198 1_555
O1 V2 2.043879 1_555
O2 V0 1.693431 1_555
O2 V3 1.947690 1_656
O3 V2 1.693431 1_555
O3 V3 1.947690 1_565
O4 V4 1.684198 1_555
O4 V0 2.043879 1_555
O5 V1 1.693956 1_555
O5 V5 1.940644 1_665
F0 V2 1.970893 1_555
F0 V3 1.995396 1_555
F0 O3 2.686877 1_555
F0 O1 2.693787 1_555
F0 O3 2.752901 1_545
F0 F1 2.768593 1_445
F0 F1 2.770386 1_555
F1 V2 1.965112 1_555
F1 V3 1.982027 1_665
F1 O3 2.685413 1_555
F1 F4 2.749390 1_565
F1 O1 2.750182 1_555
F2 V0 1.956491 1_565
F2 V4 2.067201 1_555
F2 F7 2.613142 1_555
F2 F6 2.634446 1_555
F2 O4 2.686148 1_555
F2 F9 2.699755 1_555
F2 O2 2.710905 1_565
F2 O4 2.730931 1_565
F2 F5 2.749390 1_565
F3 V1 1.906413 1_555
F3 V5 2.026636 1_555
F3 O1 2.633530 1_555
F3 F4 2.634446 1_555
F3 O5 2.640286 1_555
F3 F8 2.668964 1_555
F4 V2 1.956491 1_545
F4 V1 2.067201 1_555
F4 F8 2.613142 1_555
F4 O1 2.686148 1_555
F4 O3 2.710905 1_545
F4 O1 2.730931 1_545
F5 V0 1.965112 1_555
F5 V3 1.982027 1_556
F5 O2 2.685413 1_555
F5 O4 2.750182 1_555
F6 V4 1.906413 1_555
F6 V5 2.026636 1_665
F6 O4 2.633530 1_555
F6 O0 2.640286 1_555
F6 F7 2.668964 1_555
F7 V5 1.961492 1_565
F7 V4 2.080244 1_555
F7 O0 2.662953 1_555
F7 F9 2.686959 1_555
F7 O0 2.739776 1_565
F8 V5 1.961492 1_655
F8 V1 2.080244 1_555
F8 O5 2.662953 1_555
F8 O5 2.739776 1_545
F9 V4 1.936322 1_555
F9 V0 2.011691 1_455
F9 O4 2.693398 1_555
F9 O0 2.695897 1_555
F9 O2 2.723654 1_455
F10 V1 1.936322 1_555
F10 V2 2.011691 1_655
F10 F8 2.686959 1_555
F10 O1 2.693398 1_555
F10 O5 2.695897 1_555
F10 F4 2.699755 1_555
F10 O3 2.723654 1_655
F11 V0 1.970893 1_555
F11 V3 1.995396 1_666
F11 O2 2.686877 1_555
F11 O4 2.693787 1_555
F11 O2 2.752901 1_565
F11 F5 2.768593 1_665
F11 F5 2.770386 1_555
