# generated using pymatgen
data_Li4Cr3FeO8
_symmetry_space_group_name_H-M   'P 1'
_cell_length_a   5.12262700
_cell_length_b   7.78268994
_cell_length_c   7.78321675
_cell_angle_alpha   81.64059216
_cell_angle_beta   83.70961260
_cell_angle_gamma   71.01635790
_symmetry_Int_Tables_number   1
_chemical_formula_structural   Li4Cr3FeO8
_chemical_formula_sum   'Li8 Cr6 Fe2 O16'
_cell_volume   289.66181329
_cell_formula_units_Z   2
loop_
 _symmetry_equiv_pos_site_id
 _symmetry_equiv_pos_as_xyz
  1  'x, y, z'
loop_
 _atom_site_type_symbol
 _atom_site_label
 _atom_site_symmetry_multiplicity
 _atom_site_fract_x
 _atom_site_fract_y
 _atom_site_fract_z
 _atom_site_occupancy
  Li  Li0  1  0.49643500  0.56426200  0.81241700  1
  Li  Li1  1  0.49775800  0.31354400  0.56319200  1
  Li  Li2  1  0.50356500  0.43573800  0.18758300  1
  Li  Li3  1  0.50188800  0.93642800  0.68873500  1
  Li  Li4  1  0.49811200  0.06357200  0.31126500  1
  Li  Li5  1  0.50245800  0.18627100  0.93957200  1
  Li  Li6  1  0.50224200  0.68645600  0.43680800  1
  Li  Li7  1  0.49754200  0.81372900  0.06042800  1
  Cr  Cr0  1  0.99964200  0.24767900  0.75258200  1
  Cr  Cr1  1  0.00002300  0.37393800  0.37401100  1
  Cr  Cr2  1  0.00000000  0.50000000  0.00000000  1
  Cr  Cr3  1  0.00000000  0.00000000  0.50000000  1
  Cr  Cr4  1  0.99997700  0.62606200  0.62598900  1
  Cr  Cr5  1  0.00035800  0.75232100  0.24741800  1
  Fe  Fe0  1  0.99989500  0.12393100  0.12394900  1
  Fe  Fe1  1  0.00010500  0.87606900  0.87605100  1
  O  O0  1  0.22659200  0.41078800  0.78258700  1
  O  O1  1  0.77401100  0.46308200  0.59351800  1
  O  O2  1  0.22598900  0.53691800  0.40648200  1
  O  O3  1  0.77590200  0.08547500  0.72057700  1
  O  O4  1  0.22655300  0.16107200  0.53271400  1
  O  O5  1  0.22338100  0.28263500  0.15593900  1
  O  O6  1  0.77584000  0.21191500  0.33855000  1
  O  O7  1  0.22416000  0.78808500  0.66145000  1
  O  O8  1  0.22409800  0.91452500  0.27942300  1
  O  O9  1  0.77542700  0.33577700  0.97057800  1
  O  O10  1  0.77344700  0.83892800  0.46728600  1
  O  O11  1  0.22154300  0.03372900  0.91112100  1
  O  O12  1  0.77845700  0.96627100  0.08887900  1
  O  O13  1  0.22457300  0.66422300  0.02942200  1
  O  O14  1  0.77340800  0.58921200  0.21741300  1
  O  O15  1  0.77661900  0.71736500  0.84406100  1
loop_
_geom_bond_atom_site_label_1
_geom_bond_atom_site_label_2
_geom_bond_distance
_geom_bond_site_symmetry_2
Li0 O7 2.131593 1_555
Li0 O13 2.135216 1_556
Li0 O0 2.148606 1_555
Li0 O1 2.162270 1_555
Li0 O9 2.194451 1_555
Li0 O15 2.194523 1_555
Li1 O0 2.142484 1_555
Li1 O4 2.149680 1_555
Li1 O2 2.151515 1_555
Li1 O1 2.153452 1_555
Li1 O3 2.187721 1_555
Li1 O6 2.198894 1_555
Li2 O6 2.131593 1_555
Li2 O9 2.135216 1_554
Li2 O14 2.148606 1_555
Li2 O2 2.162270 1_555
Li2 O13 2.194451 1_555
Li2 O5 2.194523 1_555
Li3 O15 2.135728 1_555
Li3 O3 2.143929 1_565
Li3 O7 2.146663 1_555
Li3 O10 2.156340 1_555
Li3 O4 2.162021 1_565
Li3 O11 2.181893 1_565
Li4 O5 2.135728 1_555
Li4 O8 2.143929 1_545
Li4 O6 2.146663 1_555
Li4 O4 2.156340 1_555
Li4 O10 2.162021 1_545
Li4 O12 2.181893 1_545
Li5 O12 2.118385 1_546
Li5 O9 2.140451 1_555
Li5 O5 2.141100 1_556
Li5 O3 2.152544 1_555
Li5 O0 2.166619 1_555
Li5 O11 2.187916 1_555
Li6 O14 2.142484 1_555
Li6 O10 2.149680 1_555
Li6 O1 2.151515 1_555
Li6 O2 2.153452 1_555
Li6 O8 2.187721 1_555
Li6 O7 2.198894 1_555
Li7 O11 2.118385 1_564
Li7 O13 2.140451 1_555
Li7 O15 2.141100 1_554
Li7 O8 2.152544 1_555
Li7 O14 2.166619 1_555
Li7 O12 2.187916 1_555
Cr0 O3 2.016089 1_555
Cr0 O11 2.016396 1_655
Cr0 O9 2.016680 1_555
Cr0 O0 2.030622 1_655
Cr0 O4 2.030687 1_655
Cr0 O1 2.031869 1_555
Cr1 O4 2.021208 1_555
Cr1 O5 2.022639 1_555
Cr1 O14 2.022649 1_455
Cr1 O6 2.024317 1_455
Cr1 O2 2.031064 1_555
Cr1 O1 2.032055 1_455
Cr2 O14 2.019830 1_455
Cr2 O0 2.019830 1_554
Cr2 O15 2.022925 1_454
Cr2 O5 2.022925 1_555
Cr2 O13 2.027022 1_555
Cr2 O9 2.027022 1_454
Cr3 O4 2.021686 1_555
Cr3 O10 2.021686 1_445
Cr3 O6 2.024641 1_455
Cr3 O7 2.024641 1_545
Cr3 O3 2.027589 1_455
Cr3 O8 2.027589 1_545
Cr4 O10 2.021208 1_555
Cr4 O15 2.022639 1_555
Cr4 O0 2.022649 1_655
Cr4 O7 2.024317 1_655
Cr4 O1 2.031064 1_555
Cr4 O2 2.032055 1_655
Cr5 O8 2.016089 1_555
Cr5 O12 2.016396 1_455
Cr5 O13 2.016680 1_555
Cr5 O14 2.030622 1_455
Cr5 O10 2.030687 1_455
Cr5 O2 2.031869 1_555
Fe0 O11 1.983266 1_654
Fe0 O12 1.984337 1_545
Fe0 O8 1.988166 1_645
Fe0 O9 1.990123 1_554
Fe0 O5 1.992504 1_655
Fe0 O6 1.994295 1_555
Fe1 O12 1.983266 1_456
Fe1 O11 1.984337 1_565
Fe1 O3 1.988166 1_465
Fe1 O13 1.990123 1_556
Fe1 O15 1.992504 1_455
Fe1 O7 1.994295 1_555
