# generated using pymatgen
data_Mn3O5F
_symmetry_space_group_name_H-M   'P 1'
_cell_length_a   10.40315428
_cell_length_b   6.31262861
_cell_length_c   2.98667000
_cell_angle_alpha   90.00000000
_cell_angle_beta   90.00000000
_cell_angle_gamma   107.66303045
_symmetry_Int_Tables_number   1
_chemical_formula_structural   Mn3O5F
_chemical_formula_sum   'Mn6 O10 F2'
_cell_volume   186.89188985
_cell_formula_units_Z   2
loop_
 _symmetry_equiv_pos_site_id
 _symmetry_equiv_pos_as_xyz
  1  'x, y, z'
loop_
 _atom_site_type_symbol
 _atom_site_label
 _atom_site_symmetry_multiplicity
 _atom_site_fract_x
 _atom_site_fract_y
 _atom_site_fract_z
 _atom_site_occupancy
  Mn  Mn0  1  0.02290900  0.01145000  0.00000000  1
  Mn  Mn1  1  0.34199600  0.17095100  0.50000000  1
  Mn  Mn2  1  0.99139000  0.49569200  0.50000000  1
  Mn  Mn3  1  0.66671200  0.33340500  0.00000000  1
  Mn  Mn4  1  0.31044800  0.65516600  0.00000000  1
  Mn  Mn5  1  0.66666400  0.83337700  0.50000000  1
  O  O0  1  0.14196000  0.07102500  0.50000000  1
  O  O1  1  0.99692000  0.30155200  0.00000000  1
  O  O2  1  0.33641700  0.36505600  0.00000000  1
  O  O3  1  0.99696500  0.69537000  0.00000000  1
  O  O4  1  0.66663300  0.02887000  0.00000000  1
  O  O5  1  0.53952700  0.26970600  0.50000000  1
  O  O6  1  0.19139100  0.59565300  0.50000000  1
  O  O7  1  0.79387000  0.39698600  0.50000000  1
  O  O8  1  0.66662100  0.63784100  0.00000000  1
  O  O9  1  0.33634200  0.97124800  0.00000000  1
  F  F0  1  0.44926900  0.72456200  0.50000000  1
  F  F1  1  0.88396700  0.94208900  0.50000000  1
loop_
_geom_bond_atom_site_label_1
_geom_bond_atom_site_label_2
_geom_bond_distance
_geom_bond_site_symmetry_2
Mn0 O0 1.903348 1_555
Mn0 O0 1.903348 1_554
Mn0 O1 1.930606 1_455
Mn0 O3 1.930609 1_445
Mn1 O9 1.943644 1_546
Mn1 O9 1.943644 1_545
Mn1 O2 1.943699 1_556
Mn1 O2 1.943699 1_555
Mn1 O5 1.958070 1_555
Mn1 O0 1.982902 1_555
Mn2 O3 1.943680 1_556
Mn2 O3 1.943680 1_555
Mn2 O1 1.943727 1_556
Mn2 O1 1.943727 1_555
Mn2 O7 1.957961 1_555
Mn2 O6 1.982555 1_655
Mn3 O8 1.922079 1_555
Mn3 O4 1.922167 1_555
Mn3 O7 1.954191 1_554
Mn3 O7 1.954191 1_555
Mn3 O5 1.954364 1_555
Mn3 O5 1.954364 1_554
Mn4 O6 1.903384 1_555
Mn4 O6 1.903384 1_554
Mn4 O2 1.930568 1_555
Mn4 O9 1.930712 1_555
Mn5 O4 1.937326 1_566
Mn5 O4 1.937326 1_565
Mn5 O8 1.937350 1_556
Mn5 O8 1.937350 1_555
F0 Mn4 2.030686 1_555
F0 Mn4 2.030686 1_556
F0 Mn5 2.154977 1_555
F0 O2 2.672423 1_555
F0 O2 2.672423 1_556
F0 O9 2.673080 1_556
F0 O9 2.673080 1_555
F1 Mn0 2.031499 1_666
F1 Mn0 2.031499 1_665
F1 Mn5 2.154065 1_555
F1 O1 2.672420 1_565
F1 O1 2.672420 1_566
F1 O3 2.673684 1_556
F1 O3 2.673684 1_555
