# generated using pymatgen
data_Mn2V3Cu(PO4)6
_symmetry_space_group_name_H-M   'P 1'
_cell_length_a   8.60926345
_cell_length_b   8.64438541
_cell_length_c   8.64438562
_cell_angle_alpha   59.99999809
_cell_angle_beta   59.86496515
_cell_angle_gamma   59.86496000
_symmetry_Int_Tables_number   1
_chemical_formula_structural   Mn2V3Cu(PO4)6
_chemical_formula_sum   'Mn2 V3 Cu1 P6 O24'
_cell_volume   453.97275646
_cell_formula_units_Z   1
loop_
 _symmetry_equiv_pos_site_id
 _symmetry_equiv_pos_as_xyz
  1  'x, y, z'
loop_
 _atom_site_type_symbol
 _atom_site_label
 _atom_site_symmetry_multiplicity
 _atom_site_fract_x
 _atom_site_fract_y
 _atom_site_fract_z
 _atom_site_occupancy
  Mn  Mn0  1  0.98749900  0.00416700  0.00416700  1
  Mn  Mn1  1  0.49803000  0.50065700  0.50065700  1
  V  V0  1  0.06516900  0.64494400  0.64494400  1
  V  V1  1  0.42918000  0.85694000  0.85694000  1
  V  V2  1  0.93613000  0.35462300  0.35462300  1
  Cu  Cu0  1  0.56300700  0.14566400  0.14566400  1
  P  P0  1  0.25312200  0.24834900  0.54154700  1
  P  P1  1  0.25312200  0.95698100  0.24834900  1
  P  P2  1  0.25312200  0.54154700  0.95698100  1
  P  P3  1  0.75068000  0.45920800  0.04150800  1
  P  P4  1  0.75068000  0.04150800  0.74860400  1
  P  P5  1  0.75068000  0.74860400  0.45920800  1
  O  O0  1  0.06894800  0.12134800  0.30464000  1
  O  O1  1  0.06894800  0.50506400  0.12134800  1
  O  O2  1  0.06894800  0.30464000  0.50506400  1
  O  O3  1  0.23571300  0.08504700  0.73847300  1
  O  O4  1  0.43553000  0.19697000  0.38730100  1
  O  O5  1  0.25272400  0.41566300  0.56847500  1
  O  O6  1  0.23571300  0.94076700  0.08504700  1
  O  O7  1  0.25272400  0.76313700  0.41566300  1
  O  O8  1  0.56807100  0.62214300  0.00414500  1
  O  O9  1  0.25272400  0.56847500  0.76313700  1
  O  O10  1  0.77255300  0.26863900  0.05109500  1
  O  O11  1  0.56807100  0.00414500  0.80564200  1
  O  O12  1  0.43553000  0.98019700  0.19697000  1
  O  O13  1  0.23571300  0.73847300  0.94076700  1
  O  O14  1  0.73884200  0.44692800  0.23375700  1
  O  O15  1  0.43553000  0.38730100  0.98019700  1
  O  O16  1  0.73884200  0.23375700  0.58047400  1
  O  O17  1  0.77255300  0.05109500  0.90771300  1
  O  O18  1  0.73884200  0.58047400  0.44692800  1
  O  O19  1  0.56807100  0.80564200  0.62214300  1
  O  O20  1  0.77255300  0.90771300  0.26863900  1
  O  O21  1  0.93081100  0.68120000  0.50577200  1
  O  O22  1  0.93081100  0.50577200  0.88221700  1
  O  O23  1  0.93081100  0.88221700  0.68120000  1
loop_
_geom_bond_atom_site_label_1
_geom_bond_atom_site_label_2
_geom_bond_distance
_geom_bond_site_symmetry_2
Mn0 O17 2.177489 1_554
Mn0 O10 2.177489 1_555
Mn0 O20 2.177489 1_545
Mn0 O6 2.301464 1_645
Mn0 O13 2.301464 1_644
Mn0 O3 2.301464 1_654
Mn1 O16 2.266932 1_555
Mn1 O18 2.266932 1_555
Mn1 O14 2.266932 1_555
Mn1 O9 2.286418 1_555
Mn1 O7 2.286422 1_555
Mn1 O5 2.286429 1_555
Cu0 O4 1.974883 1_555
Cu0 O15 1.974887 1_554
Cu0 O12 1.974891 1_545
Cu0 O17 2.151427 1_554
Cu0 O20 2.151431 1_545
Cu0 O10 2.151433 1_555
O0 P1 1.557024 1_545
O0 V2 1.902769 1_455
O1 P2 1.557022 1_554
O1 V2 1.902773 1_455
O2 P0 1.557019 1_555
O2 V2 1.902776 1_455
O3 P0 1.570431 1_555
O3 V1 2.026519 1_545
O4 P0 1.493550 1_555
O5 P0 1.573833 1_555
O5 V0 1.999393 1_555
O6 P1 1.570426 1_555
O6 V1 2.026520 1_554
O7 P1 1.573833 1_555
O7 V0 1.999386 1_555
O8 P3 1.546382 1_555
O8 V1 1.917499 1_554
O9 P2 1.573833 1_555
O9 V0 1.999380 1_555
O10 P3 1.524390 1_555
O11 P4 1.546379 1_555
O11 V1 1.917503 1_545
O12 P1 1.493545 1_555
O13 P2 1.570435 1_555
O13 V1 2.026520 1_555
O14 P3 1.564567 1_555
O14 V2 2.049538 1_555
O15 P2 1.493548 1_555
O16 P4 1.564563 1_555
O16 V2 2.049543 1_555
O17 P4 1.524390 1_555
O18 P5 1.564558 1_555
O18 V2 2.049551 1_555
O19 P5 1.546384 1_555
O19 V1 1.917495 1_555
O20 P5 1.524390 1_555
O21 P5 1.546428 1_555
O21 V0 1.881436 1_655
O22 P3 1.546428 1_556
O22 V0 1.881432 1_655
O23 P4 1.546428 1_565
O23 V0 1.881429 1_655
