# generated using pymatgen
data_Li2FeO2F
_symmetry_space_group_name_H-M   'P 1'
_cell_length_a   5.18052112
_cell_length_b   5.18051603
_cell_length_c   9.84891919
_cell_angle_alpha   85.11057676
_cell_angle_beta   94.88962747
_cell_angle_gamma   60.15969697
_symmetry_Int_Tables_number   1
_chemical_formula_structural   Li2FeO2F
_chemical_formula_sum   'Li8 Fe4 O8 F4'
_cell_volume   225.93825776
_cell_formula_units_Z   4
loop_
 _symmetry_equiv_pos_site_id
 _symmetry_equiv_pos_as_xyz
  1  'x, y, z'
loop_
 _atom_site_type_symbol
 _atom_site_label
 _atom_site_symmetry_multiplicity
 _atom_site_fract_x
 _atom_site_fract_y
 _atom_site_fract_z
 _atom_site_occupancy
  Li  Li0  1  0.59970200  0.59971900  0.74999800  1
  Li  Li1  1  0.40028100  0.40029800  0.24999800  1
  Li  Li2  1  0.22560000  0.22563300  0.75000200  1
  Li  Li3  1  0.77436800  0.77440000  0.25000200  1
  Li  Li4  1  0.90804300  0.90805700  0.74999700  1
  Li  Li5  1  0.09194200  0.09195800  0.24999700  1
  Li  Li6  1  0.99999700  0.49999400  0.00000000  1
  Li  Li7  1  0.50000700  0.00000200  0.50000100  1
  Fe  Fe0  1  0.87450200  0.31267400  0.49847300  1
  Fe  Fe1  1  0.68732600  0.12549800  0.99847100  1
  Fe  Fe2  1  0.12561800  0.68735500  0.50153200  1
  Fe  Fe3  1  0.31266400  0.87436300  0.00153700  1
  O  O0  1  0.19512000  0.94913500  0.61659300  1
  O  O1  1  0.05086400  0.80488100  0.11659300  1
  O  O2  1  0.94914800  0.19510100  0.88341600  1
  O  O3  1  0.80490100  0.05085000  0.38341600  1
  O  O4  1  0.60495400  0.88169800  0.88184000  1
  O  O5  1  0.11830300  0.39504400  0.38184000  1
  O  O6  1  0.88171500  0.60497700  0.61815000  1
  O  O7  1  0.39502300  0.11828800  0.11815100  1
  F  F0  1  0.30466900  0.53818400  0.88062500  1
  F  F1  1  0.46181400  0.69533200  0.38062500  1
  F  F2  1  0.53814700  0.30470700  0.61937200  1
  F  F3  1  0.69529300  0.46185300  0.11937200  1
loop_
_geom_bond_atom_site_label_1
_geom_bond_atom_site_label_2
_geom_bond_distance
_geom_bond_site_symmetry_2
Li0 O4 2.043930 1_555
Li0 O6 2.044122 1_555
Li0 O0 2.178400 1_555
Li0 O2 2.178598 1_555
Li1 O5 2.043934 1_555
Li1 O7 2.044099 1_555
Li1 O1 2.178405 1_555
Li1 O3 2.178606 1_555
Li2 O2 2.076891 1_455
Li2 O0 2.076941 1_545
Li2 O6 2.099670 1_455
Li2 O4 2.099715 1_545
Li3 O3 2.076880 1_565
Li3 O1 2.076939 1_655
Li3 O7 2.099673 1_565
Li3 O5 2.099720 1_655
Li4 O0 2.140974 1_655
Li4 O2 2.140987 1_565
Li4 O6 2.168079 1_555
Li4 O4 2.168155 1_555
Li5 O1 2.140970 1_545
Li5 O3 2.140985 1_455
Li5 O7 2.168085 1_555
Li5 O5 2.168142 1_555
Li6 O2 2.134084 1_554
Li6 O1 2.134151 1_655
Li6 O7 2.151025 1_655
Li6 O4 2.151094 1_554
Li7 O3 2.134097 1_555
Li7 O0 2.134150 1_545
Li7 O6 2.151019 1_545
Li7 O5 2.151095 1_555
Fe0 O5 1.948577 1_655
Fe0 O0 1.960406 1_645
Fe0 O3 1.983170 1_555
Fe0 O6 2.009182 1_555
Fe1 O4 1.948561 1_545
Fe1 O1 1.960410 1_646
Fe1 O2 1.983159 1_555
Fe1 O7 2.009200 1_556
Fe2 O6 1.948931 1_455
Fe2 O3 1.960441 1_465
Fe2 O0 1.982764 1_555
Fe2 O5 2.009493 1_555
Fe3 O7 1.948946 1_565
Fe3 O2 1.960550 1_464
Fe3 O1 1.982775 1_555
Fe3 O4 2.009476 1_554
F0 Li6 2.121349 1_456
F0 Li4 2.181670 1_455
F0 Fe1 2.194247 1_555
F0 Li0 2.200695 1_555
F0 Fe3 2.206777 1_556
F0 Li2 2.317301 1_555
F1 Li7 2.121348 1_565
F1 Li5 2.181669 1_565
F1 Fe0 2.194261 1_555
F1 Li1 2.200690 1_555
F1 Fe2 2.206793 1_555
F1 Li3 2.317317 1_555
F2 Li7 2.121356 1_555
F2 Li4 2.181757 1_545
F2 Fe2 2.193817 1_555
F2 Li0 2.200641 1_555
F2 Fe0 2.207422 1_555
F2 Li2 2.317342 1_555
F3 Li6 2.121364 1_555
F3 Li5 2.181753 1_655
F3 Fe3 2.193715 1_555
F3 Li1 2.200646 1_555
F3 Fe1 2.207429 1_554
F3 Li3 2.317340 1_555
