# generated using pymatgen
data_Li2Co2(SO4)3
_symmetry_space_group_name_H-M   'P 1'
_cell_length_a   7.84148235
_cell_length_b   7.84148235
_cell_length_c   8.80678064
_cell_angle_alpha   68.61643884
_cell_angle_beta   68.61643884
_cell_angle_gamma   66.81512436
_symmetry_Int_Tables_number   1
_chemical_formula_structural   Li2Co2(SO4)3
_chemical_formula_sum   'Li4 Co4 S6 O24'
_cell_volume   447.79294328
_cell_formula_units_Z   2
loop_
 _symmetry_equiv_pos_site_id
 _symmetry_equiv_pos_as_xyz
  1  'x, y, z'
loop_
 _atom_site_type_symbol
 _atom_site_label
 _atom_site_symmetry_multiplicity
 _atom_site_fract_x
 _atom_site_fract_y
 _atom_site_fract_z
 _atom_site_occupancy
  Li  Li0  1  0.67140500  0.86291200  0.05530400  1
  Li  Li1  1  0.86291200  0.67140500  0.55530400  1
  Li  Li2  1  0.13708800  0.32859500  0.44469600  1
  Li  Li3  1  0.32859500  0.13708800  0.94469600  1
  Co  Co0  1  0.36886500  0.87348200  0.48322600  1
  Co  Co1  1  0.87348200  0.36886500  0.98322600  1
  Co  Co2  1  0.12651800  0.63113500  0.01677400  1
  Co  Co3  1  0.63113500  0.12651800  0.51677400  1
  S  S0  1  0.74982900  0.53923500  0.32293900  1
  S  S1  1  0.53923500  0.74982900  0.82293900  1
  S  S2  1  0.05886400  0.94113600  0.25000000  1
  S  S3  1  0.94113600  0.05886400  0.75000000  1
  S  S4  1  0.46076500  0.25017100  0.17706100  1
  S  S5  1  0.25017100  0.46076500  0.67706100  1
  O  O0  1  0.87244800  0.95112900  0.38490100  1
  O  O1  1  0.95112900  0.87244800  0.88490100  1
  O  O2  1  0.87595300  0.50210300  0.42830100  1
  O  O3  1  0.61224500  0.73815300  0.31137300  1
  O  O4  1  0.86762500  0.54294200  0.13994700  1
  O  O5  1  0.50210300  0.87595300  0.92830100  1
  O  O6  1  0.21581100  0.90361300  0.32229600  1
  O  O7  1  0.65131900  0.39512200  0.38291600  1
  O  O8  1  0.73815300  0.61224500  0.81137300  1
  O  O9  1  0.54294200  0.86762500  0.63994700  1
  O  O10  1  0.90361300  0.21581100  0.82229600  1
  O  O11  1  0.60487800  0.34868100  0.11708400  1
  O  O12  1  0.39512200  0.65131900  0.88291600  1
  O  O13  1  0.09638700  0.78418900  0.17770400  1
  O  O14  1  0.45705800  0.13237500  0.36005300  1
  O  O15  1  0.26184700  0.38775500  0.18862700  1
  O  O16  1  0.34868100  0.60487800  0.61708400  1
  O  O17  1  0.78418900  0.09638700  0.67770400  1
  O  O18  1  0.49789700  0.12404700  0.07169900  1
  O  O19  1  0.13237500  0.45705800  0.86005300  1
  O  O20  1  0.38775500  0.26184700  0.68862700  1
  O  O21  1  0.12404700  0.49789700  0.57169900  1
  O  O22  1  0.04887100  0.12755200  0.11509900  1
  O  O23  1  0.12755200  0.04887100  0.61509900  1
loop_
_geom_bond_atom_site_label_1
_geom_bond_atom_site_label_2
_geom_bond_distance
_geom_bond_site_symmetry_2
Li0 O5 1.978999 1_554
Li0 O18 1.985861 1_565
Li0 O3 2.060000 1_555
Li0 O1 2.171603 1_554
Li0 O4 2.377211 1_555
Li1 O2 1.978999 1_555
Li1 O21 1.985861 1_655
Li1 O8 2.060000 1_555
Li1 O0 2.171603 1_555
Li1 O9 2.377211 1_555
Li2 O21 1.978999 1_555
Li2 O2 1.985861 1_455
Li2 O15 2.060000 1_555
Li2 O23 2.171603 1_555
Li2 O14 2.377211 1_555
Li3 O18 1.978999 1_556
Li3 O5 1.985861 1_545
Li3 O20 2.060000 1_555
Li3 O22 2.171603 1_556
Li3 O19 2.377211 1_555
Co0 O16 2.041288 1_555
Co0 O6 2.068288 1_555
Co0 O23 2.081812 1_565
Co0 O3 2.128183 1_555
Co0 O14 2.174590 1_565
Co0 O9 2.246917 1_555
Co1 O11 2.041288 1_556
Co1 O10 2.068288 1_555
Co1 O22 2.081812 1_656
Co1 O8 2.128183 1_555
Co1 O19 2.174590 1_655
Co1 O4 2.246917 1_556
Co2 O12 2.041288 1_554
Co2 O13 2.068288 1_555
Co2 O1 2.081812 1_454
Co2 O15 2.128183 1_555
Co2 O4 2.174590 1_455
Co2 O19 2.246917 1_554
Co3 O7 2.041288 1_555
Co3 O17 2.068288 1_555
Co3 O0 2.081812 1_545
Co3 O20 2.128183 1_555
Co3 O9 2.174590 1_545
Co3 O14 2.246917 1_555
O0 S2 1.505215 1_655
O1 S3 1.505215 1_565
O2 S0 1.472866 1_555
O3 S0 1.498852 1_555
O4 S0 1.533846 1_555
O5 S1 1.472866 1_555
O6 S2 1.468411 1_555
O7 S0 1.451645 1_555
O8 S1 1.498852 1_555
O9 S1 1.533846 1_555
O10 S3 1.468411 1_555
O11 S4 1.451645 1_555
O12 S1 1.451645 1_555
O13 S2 1.468411 1_555
O14 S4 1.533846 1_555
O15 S4 1.498852 1_555
O16 S5 1.451645 1_555
O17 S3 1.468411 1_555
O18 S4 1.472866 1_555
O19 S5 1.533846 1_555
O20 S5 1.498852 1_555
O21 S5 1.472866 1_555
O22 S2 1.505215 1_545
O23 S3 1.505215 1_455
