# generated using pymatgen
data_Sr2Fe23O38
_symmetry_space_group_name_H-M   'P 1'
_cell_length_a   5.99367166
_cell_length_b   5.99267652
_cell_length_c   23.43471857
_cell_angle_alpha   90.11402515
_cell_angle_beta   89.85013580
_cell_angle_gamma   120.07025877
_symmetry_Int_Tables_number   1
_chemical_formula_structural   Sr2Fe23O38
_chemical_formula_sum   'Sr2 Fe23 O38'
_cell_volume   728.44142163
_cell_formula_units_Z   1
loop_
 _symmetry_equiv_pos_site_id
 _symmetry_equiv_pos_as_xyz
  1  'x, y, z'
loop_
 _atom_site_type_symbol
 _atom_site_label
 _atom_site_symmetry_multiplicity
 _atom_site_fract_x
 _atom_site_fract_y
 _atom_site_fract_z
 _atom_site_occupancy
  Sr  Sr0  1  0.32783600  0.66295500  0.74950300  1
  Sr  Sr1  1  0.64732100  0.32826000  0.25039500  1
  Fe  Fe0  1  0.17107500  0.83262700  0.60912400  1
  Fe  Fe1  1  0.16608300  0.83078400  0.88927400  1
  Fe  Fe2  1  0.32823400  0.66910000  0.19518700  1
  Fe  Fe3  1  0.33357400  0.66681700  0.02606500  1
  Fe  Fe4  1  0.17146100  0.33908800  0.60911200  1
  Fe  Fe5  1  0.33104200  0.66618000  0.30973700  1
  Fe  Fe6  1  0.00084500  0.99999800  0.99936700  1
  Fe  Fe7  1  0.00245100  0.00095200  0.50108200  1
  Fe  Fe8  1  0.99722700  0.99867300  0.74546800  1
  Fe  Fe9  1  0.33533800  0.66756200  0.47376700  1
  Fe  Fe10  1  0.16604800  0.33566900  0.88934300  1
  Fe  Fe11  1  0.66201900  0.83125200  0.88962500  1
  Fe  Fe12  1  0.66617200  0.83338300  0.60961000  1
  Fe  Fe13  1  0.33541000  0.16813600  0.10951400  1
  Fe  Fe14  1  0.33625800  0.16734600  0.39267700  1
  Fe  Fe15  1  0.66627000  0.33337400  0.69026000  1
  Fe  Fe16  1  0.66621300  0.33293700  0.97288100  1
  Fe  Fe17  1  0.67043900  0.33482000  0.52854000  1
  Fe  Fe18  1  0.66330400  0.33159800  0.80786600  1
  Fe  Fe19  1  0.83295700  0.66448900  0.39234100  1
  Fe  Fe20  1  0.83208800  0.66534800  0.10964300  1
  Fe  Fe21  1  0.83325600  0.16721100  0.10930700  1
  Fe  Fe22  1  0.83376800  0.16668100  0.39223300  1
  O  O0  1  0.15666600  0.84390600  0.05209000  1
  O  O1  1  0.15751300  0.84362800  0.44917900  1
  O  O2  1  0.01003500  0.50484600  0.84682900  1
  O  O3  1  0.01333300  0.50691300  0.65100700  1
  O  O4  1  0.19814500  0.81118600  0.24725500  1
  O  O5  1  0.33183000  0.66619400  0.94290600  1
  O  O6  1  0.33741900  0.66890100  0.55632200  1
  O  O7  1  0.15706400  0.31269000  0.05202100  1
  O  O8  1  0.99999700  0.00057800  0.14671800  1
  O  O9  1  0.00166100  0.99971500  0.35484800  1
  O  O10  1  0.00287200  0.00183000  0.65211900  1
  O  O11  1  0.15801800  0.31287800  0.44906900  1
  O  O12  1  0.99839300  0.99914000  0.84755400  1
  O  O13  1  0.19954100  0.39506100  0.24936800  1
  O  O14  1  0.49549400  0.98908900  0.65106500  1
  O  O15  1  0.49284700  0.98744400  0.84728200  1
  O  O16  1  0.60219700  0.79908700  0.25036800  1
  O  O17  1  0.31419100  0.15720400  0.55352800  1
  O  O18  1  0.31214900  0.15613900  0.94633300  1
  O  O19  1  0.49577400  0.50720500  0.65109900  1
  O  O20  1  0.49261300  0.50537400  0.84727500  1
  O  O21  1  0.50662300  0.49309500  0.34983800  1
  O  O22  1  0.50139800  0.49856000  0.15254500  1
  O  O23  1  0.68766200  0.84344500  0.05199600  1
  O  O24  1  0.69009200  0.84432700  0.44913900  1
  O  O25  1  0.36250100  0.18177800  0.74859200  1
  O  O26  1  0.50242400  0.00315700  0.15227200  1
  O  O27  1  0.50361700  0.00489800  0.34994500  1
  O  O28  1  0.66978800  0.33311900  0.44557700  1
  O  O29  1  0.66720500  0.33316600  0.05692400  1
  O  O30  1  0.81471000  0.63350500  0.74854800  1
  O  O31  1  0.84340300  0.68743500  0.94645400  1
  O  O32  1  0.84767000  0.69049800  0.55386700  1
  O  O33  1  0.81478200  0.18132800  0.74848300  1
  O  O34  1  0.99631300  0.49788800  0.15225200  1
  O  O35  1  0.99566700  0.49686500  0.34953700  1
  O  O36  1  0.84370900  0.15577300  0.94655000  1
  O  O37  1  0.84800200  0.15732200  0.55385900  1
loop_
_geom_bond_atom_site_label_1
_geom_bond_atom_site_label_2
_geom_bond_distance
_geom_bond_site_symmetry_2
Fe0 O14 1.950743 1_555
Fe0 O3 1.954633 1_555
Fe0 O10 2.018606 1_565
Fe0 O6 2.111131 1_555
Fe0 O32 2.124589 1_455
Fe0 O17 2.132808 1_565
Fe1 O15 1.958714 1_555
Fe1 O2 1.961052 1_555
Fe1 O12 2.002300 1_455
Fe1 O5 2.129047 1_555
Fe1 O31 2.144790 1_455
Fe1 O18 2.154331 1_565
Fe2 O4 1.864952 1_555
Fe2 O13 1.907309 1_555
Fe2 O16 1.923700 1_555
Fe2 O34 1.995932 1_455
Fe2 O26 2.004261 1_565
Fe2 O22 2.042978 1_555
Fe3 O0 1.934987 1_555
Fe3 O7 1.935125 1_555
Fe3 O23 1.935661 1_555
Fe3 O5 1.948849 1_554
Fe4 O19 1.950686 1_555
Fe4 O3 1.954502 1_555
Fe4 O10 2.019353 1_555
Fe4 O6 2.111736 1_555
Fe4 O37 2.124373 1_455
Fe4 O17 2.130629 1_555
Fe5 O35 1.972337 1_455
Fe5 O16 1.976560 1_555
Fe5 O27 1.992841 1_565
Fe5 O13 1.993946 1_555
Fe5 O21 2.041922 1_555
Fe5 O4 2.058743 1_555
Fe6 O18 2.035805 1_565
Fe6 O7 2.036964 1_566
Fe6 O23 2.037786 1_456
Fe6 O0 2.039588 1_556
Fe6 O31 2.040128 1_455
Fe6 O36 2.045057 1_465
Fe7 O1 2.024770 1_545
Fe7 O11 2.026278 1_555
Fe7 O24 2.028344 1_445
Fe7 O37 2.030634 1_455
Fe7 O32 2.031164 1_445
Fe7 O17 2.032900 1_555
Fe8 O30 1.895243 1_555
Fe8 O25 1.896224 1_665
Fe8 O33 1.896756 1_565
Fe8 O10 2.187754 1_665
Fe8 O12 2.392377 1_555
Fe9 O1 1.927131 1_555
Fe9 O24 1.927471 1_555
Fe9 O11 1.927915 1_555
Fe9 O6 1.934701 1_555
Fe10 O20 1.958668 1_555
Fe10 O2 1.963104 1_555
Fe10 O12 2.000597 1_445
Fe10 O5 2.123803 1_555
Fe10 O36 2.144080 1_455
Fe10 O18 2.159615 1_555
Fe11 O20 1.959630 1_555
Fe11 O15 1.961870 1_555
Fe11 O12 2.002456 1_555
Fe11 O5 2.117631 1_555
Fe11 O36 2.150006 1_565
Fe11 O31 2.156248 1_555
Fe12 O14 1.951595 1_555
Fe12 O19 1.952172 1_555
Fe12 O10 2.012220 1_665
Fe12 O6 2.115489 1_555
Fe12 O32 2.131813 1_555
Fe12 O37 2.132065 1_565
Fe13 O8 1.944563 1_455
Fe13 O22 1.987642 1_555
Fe13 O26 1.996130 1_555
Fe13 O29 2.114918 1_555
Fe13 O0 2.155246 1_545
Fe13 O7 2.156039 1_555
Fe14 O9 1.950334 1_545
Fe14 O21 1.966249 1_555
Fe14 O27 1.981458 1_555
Fe14 O28 2.130244 1_555
Fe14 O11 2.137767 1_555
Fe14 O1 2.141132 1_545
Fe15 O14 2.007287 1_545
Fe15 O19 2.011755 1_555
Fe15 O3 2.020088 1_655
Fe15 O30 2.070101 1_555
Fe15 O33 2.075651 1_555
Fe15 O25 2.084053 1_555
Fe16 O18 1.940153 1_555
Fe16 O31 1.940446 1_555
Fe16 O36 1.940505 1_555
Fe16 O29 1.969544 1_556
Fe17 O32 1.937292 1_555
Fe17 O17 1.937383 1_555
Fe17 O37 1.938138 1_555
Fe17 O28 1.944225 1_555
Fe18 O15 2.010378 1_545
Fe18 O20 2.010712 1_555
Fe18 O2 2.018530 1_655
Fe18 O25 2.090957 1_555
Fe18 O33 2.092745 1_555
Fe18 O30 2.094588 1_555
Fe19 O9 1.948558 1_655
Fe19 O21 1.966125 1_555
Fe19 O35 1.984672 1_555
Fe19 O28 2.124510 1_555
Fe19 O24 2.139973 1_555
Fe19 O1 2.150785 1_655
Fe20 O8 1.942951 1_565
Fe20 O22 1.986617 1_555
Fe20 O34 1.992994 1_555
Fe20 O29 2.119166 1_555
Fe20 O23 2.156654 1_555
Fe20 O0 2.157462 1_655
Fe21 O8 1.942351 1_555
Fe21 O34 1.987788 1_555
Fe21 O26 1.987997 1_555
Fe21 O29 2.118890 1_555
Fe21 O7 2.150450 1_655
Fe21 O23 2.151476 1_545
Fe22 O9 1.944801 1_645
Fe22 O27 1.980313 1_555
Fe22 O35 1.984092 1_555
Fe22 O28 2.120034 1_555
Fe22 O24 2.142170 1_545
Fe22 O11 2.149702 1_655
O2 Sr0 2.811642 1_555
O3 Sr0 2.829026 1_555
O4 Sr1 2.914665 1_565
O4 Sr1 3.115316 1_455
O13 O16 2.414863 1_555
O13 O4 2.498495 1_555
O13 Sr1 2.905324 1_555
O13 Sr1 3.128515 1_455
O14 Sr0 2.861617 1_555
O15 Sr0 2.841992 1_555
O16 O4 2.460160 1_555
O16 Sr1 2.966280 1_555
O16 Sr1 3.044655 1_565
O19 Sr0 2.850099 1_555
O20 Sr0 2.841143 1_555
O21 Sr1 2.816575 1_555
O22 Sr1 2.824716 1_555
O25 Sr0 2.993081 1_555
O25 Sr0 3.010523 1_545
O26 Sr1 2.852111 1_555
O27 Sr1 2.876521 1_555
O30 Sr0 2.991123 1_655
O30 Sr0 3.010493 1_555
O33 Sr0 2.982096 1_655
O33 Sr0 3.013799 1_545
O34 Sr1 2.924349 1_555
O35 Sr1 2.946202 1_555
