# generated using pymatgen
data_Li4Mn2Co5O12
_symmetry_space_group_name_H-M   'P 1'
_cell_length_a   8.86290800
_cell_length_b   5.00743800
_cell_length_c   9.86533051
_cell_angle_alpha   78.99185764
_cell_angle_beta   90.00000000
_cell_angle_gamma   90.00000000
_symmetry_Int_Tables_number   1
_chemical_formula_structural   Li4Mn2Co5O12
_chemical_formula_sum   'Li8 Mn4 Co10 O24'
_cell_volume   429.77192034
_cell_formula_units_Z   2
loop_
 _symmetry_equiv_pos_site_id
 _symmetry_equiv_pos_as_xyz
  1  'x, y, z'
loop_
 _atom_site_type_symbol
 _atom_site_label
 _atom_site_symmetry_multiplicity
 _atom_site_fract_x
 _atom_site_fract_y
 _atom_site_fract_z
 _atom_site_occupancy
  Li  Li0  1  0.91278900  0.00124400  0.73946400  1
  Li  Li1  1  0.92472900  0.49334600  0.26151200  1
  Li  Li2  1  0.58029500  0.75840000  0.50454700  1
  Li  Li3  1  0.57523900  0.50772000  0.26283500  1
  Li  Li4  1  0.41278900  0.99875600  0.26053600  1
  Li  Li5  1  0.42472900  0.50665400  0.73848800  1
  Li  Li6  1  0.08029500  0.24160000  0.49545300  1
  Li  Li7  1  0.07523900  0.49228000  0.73716500  1
  Mn  Mn0  1  0.74683300  0.24912400  0.50276100  1
  Mn  Mn1  1  0.75011400  0.75151800  0.99827300  1
  Mn  Mn2  1  0.25011400  0.24848200  0.00172700  1
  Mn  Mn3  1  0.24683300  0.75087600  0.49723900  1
  Co  Co0  1  0.91960900  0.25670900  0.00338500  1
  Co  Co1  1  0.91908800  0.74970900  0.49756900  1
  Co  Co2  1  0.75010900  0.99505900  0.25866400  1
  Co  Co3  1  0.58228500  0.24546000  0.99883600  1
  Co  Co4  1  0.73662100  0.50718400  0.73923600  1
  Co  Co5  1  0.41908800  0.25029100  0.50243100  1
  Co  Co6  1  0.41960900  0.74329100  0.99661500  1
  Co  Co7  1  0.25010900  0.00494100  0.74133600  1
  Co  Co8  1  0.23662100  0.49281600  0.26076400  1
  Co  Co9  1  0.08228500  0.75454000  0.00116400  1
  O  O0  1  0.89833600  0.11487900  0.38999700  1
  O  O1  1  0.89985200  0.86968600  0.11217100  1
  O  O2  1  0.76769000  0.87390200  0.60939100  1
  O  O3  1  0.76470600  0.12138200  0.88660200  1
  O  O4  1  0.90098200  0.62877400  0.88105300  1
  O  O5  1  0.90309200  0.38515300  0.61316000  1
  O  O6  1  0.58819800  0.14532400  0.38722700  1
  O  O7  1  0.76403100  0.62027700  0.38588500  1
  O  O8  1  0.59426300  0.86006100  0.11627100  1
  O  O9  1  0.75594300  0.38329200  0.11653500  1
  O  O10  1  0.58828100  0.63299300  0.88925900  1
  O  O11  1  0.58873000  0.36963300  0.61121500  1
  O  O12  1  0.39985200  0.13031400  0.88782900  1
  O  O13  1  0.39833600  0.88512100  0.61000300  1
  O  O14  1  0.26769000  0.12609800  0.39060900  1
  O  O15  1  0.40309200  0.61484700  0.38684000  1
  O  O16  1  0.26470600  0.87861800  0.11339800  1
  O  O17  1  0.40098200  0.37122600  0.11894700  1
  O  O18  1  0.09426300  0.13993900  0.88372900  1
  O  O19  1  0.26403100  0.37972300  0.61411500  1
  O  O20  1  0.08819800  0.85467600  0.61277300  1
  O  O21  1  0.25594300  0.61670800  0.88346500  1
  O  O22  1  0.08873000  0.63036700  0.38878500  1
  O  O23  1  0.08828100  0.36700700  0.11074100  1
loop_
_geom_bond_atom_site_label_1
_geom_bond_atom_site_label_2
_geom_bond_distance
_geom_bond_site_symmetry_2
Li0 O2 2.004875 1_545
Li0 O5 2.083463 1_555
Li0 O4 2.108507 1_545
Li0 O3 2.127192 1_555
Li0 O20 2.206349 1_645
Li0 O18 2.339293 1_655
Li1 O7 2.058103 1_555
Li1 O0 2.082210 1_555
Li1 O22 2.118729 1_655
Li1 O1 2.170311 1_555
Li1 O9 2.210912 1_555
Li1 O23 2.252365 1_655
Li2 O11 2.029866 1_555
Li2 O6 2.059609 1_565
Li2 O13 2.082754 1_555
Li2 O2 2.095533 1_555
Li2 O15 2.156503 1_555
Li2 O7 2.193120 1_555
Li3 O6 1.990409 1_555
Li3 O8 2.063413 1_555
Li3 O15 2.088730 1_555
Li3 O7 2.202803 1_555
Li3 O17 2.288647 1_555
Li3 O9 2.319429 1_555
Li4 O14 2.004875 1_565
Li4 O15 2.083463 1_555
Li4 O17 2.108507 1_565
Li4 O16 2.127192 1_555
Li4 O6 2.206349 1_565
Li4 O8 2.339293 1_555
Li5 O19 2.058103 1_555
Li5 O13 2.082210 1_555
Li5 O11 2.118729 1_555
Li5 O12 2.170311 1_555
Li5 O21 2.210912 1_555
Li5 O10 2.252365 1_555
Li6 O22 2.029866 1_555
Li6 O20 2.059609 1_545
Li6 O0 2.082754 1_455
Li6 O14 2.095533 1_555
Li6 O5 2.156503 1_455
Li6 O19 2.193120 1_555
Li7 O20 1.990409 1_555
Li7 O18 2.063413 1_555
Li7 O5 2.088730 1_455
Li7 O19 2.202803 1_555
Li7 O4 2.288647 1_455
Li7 O21 2.319429 1_555
Mn0 O11 1.928465 1_555
Mn0 O6 1.942229 1_555
Mn0 O0 1.943714 1_555
Mn0 O5 1.962511 1_555
Mn0 O2 1.978939 1_545
Mn0 O7 1.997106 1_555
Mn1 O1 1.904691 1_556
Mn1 O4 1.942787 1_555
Mn1 O8 1.949390 1_556
Mn1 O10 1.951889 1_555
Mn1 O3 1.970117 1_565
Mn1 O9 1.985484 1_556
Mn2 O12 1.904691 1_554
Mn2 O17 1.942787 1_555
Mn2 O18 1.949390 1_554
Mn2 O23 1.951889 1_555
Mn2 O16 1.970117 1_545
Mn2 O21 1.985484 1_554
Mn3 O22 1.928465 1_555
Mn3 O20 1.942229 1_555
Mn3 O13 1.943714 1_555
Mn3 O15 1.962511 1_555
Mn3 O14 1.978939 1_565
Mn3 O19 1.997106 1_555
Co0 O23 1.971024 1_655
Co0 O3 1.992366 1_554
Co0 O9 2.005528 1_555
Co0 O4 2.023898 1_554
Co0 O1 2.035673 1_545
Co0 O18 2.096442 1_654
Co1 O2 1.914734 1_555
Co1 O0 1.939746 1_565
Co1 O7 1.948158 1_555
Co1 O5 1.964157 1_555
Co1 O22 2.003587 1_655
Co1 O20 2.010602 1_655
Co2 O0 2.015298 1_565
Co2 O7 2.052539 1_555
Co2 O1 2.142564 1_555
Co2 O6 2.144408 1_565
Co2 O8 2.168133 1_555
Co2 O9 2.169572 1_565
Co3 O10 2.033719 1_555
Co3 O8 2.055235 1_546
Co3 O12 2.094566 1_555
Co3 O3 2.118650 1_555
Co3 O9 2.121209 1_556
Co3 O17 2.160485 1_556
Co4 O11 2.029722 1_555
Co4 O2 2.047055 1_555
Co4 O5 2.094636 1_555
Co4 O10 2.161465 1_555
Co4 O4 2.185278 1_555
Co4 O3 2.198886 1_555
Co5 O14 1.914734 1_555
Co5 O13 1.939746 1_545
Co5 O19 1.948158 1_555
Co5 O15 1.964157 1_555
Co5 O11 2.003587 1_555
Co5 O6 2.010602 1_555
Co6 O10 1.971024 1_555
Co6 O16 1.992366 1_556
Co6 O21 2.005528 1_555
Co6 O17 2.023898 1_556
Co6 O12 2.035673 1_565
Co6 O8 2.096442 1_556
Co7 O13 2.015298 1_545
Co7 O19 2.052539 1_555
Co7 O12 2.142564 1_555
Co7 O20 2.144408 1_545
Co7 O18 2.168133 1_555
Co7 O21 2.169572 1_545
Co8 O22 2.029722 1_555
Co8 O14 2.047055 1_555
Co8 O15 2.094636 1_555
Co8 O23 2.161465 1_555
Co8 O17 2.185278 1_555
Co8 O16 2.198886 1_555
Co9 O23 2.033719 1_555
Co9 O18 2.055235 1_564
Co9 O1 2.094566 1_455
Co9 O16 2.118650 1_555
Co9 O21 2.121209 1_554
Co9 O4 2.160485 1_454
