# generated using pymatgen
data_BaV2O7
_symmetry_space_group_name_H-M   'P 1'
_cell_length_a   7.39793700
_cell_length_b   9.05606100
_cell_length_c   10.64490300
_cell_angle_alpha   90.00000000
_cell_angle_beta   90.00000000
_cell_angle_gamma   90.00000000
_symmetry_Int_Tables_number   1
_chemical_formula_structural   BaV2O7
_chemical_formula_sum   'Ba4 V8 O28'
_cell_volume   713.16771767
_cell_formula_units_Z   4
loop_
 _symmetry_equiv_pos_site_id
 _symmetry_equiv_pos_as_xyz
  1  'x, y, z'
loop_
 _atom_site_type_symbol
 _atom_site_label
 _atom_site_symmetry_multiplicity
 _atom_site_fract_x
 _atom_site_fract_y
 _atom_site_fract_z
 _atom_site_occupancy
  Ba  Ba0  1  0.74320800  0.88275800  0.49014200  1
  Ba  Ba1  1  0.75679200  0.11724200  0.99014200  1
  Ba  Ba2  1  0.24320800  0.61724200  0.50985800  1
  Ba  Ba3  1  0.25679200  0.38275800  0.00985800  1
  V  V0  1  0.52814400  0.77023400  0.18161800  1
  V  V1  1  0.97185600  0.22976600  0.68161800  1
  V  V2  1  0.02814400  0.72976600  0.81838200  1
  V  V3  1  0.47185600  0.27023400  0.31838200  1
  V  V4  1  0.77096400  0.48852400  0.49407600  1
  V  V5  1  0.72903600  0.51147600  0.99407600  1
  V  V6  1  0.27096400  0.01147600  0.50592400  1
  V  V7  1  0.22903600  0.98852400  0.00592400  1
  O  O0  1  0.70629900  0.88467300  0.17424100  1
  O  O1  1  0.79370100  0.11532700  0.67424100  1
  O  O2  1  0.20629900  0.61532700  0.82575900  1
  O  O3  1  0.29370100  0.38467300  0.32575900  1
  O  O4  1  0.43346600  0.09662400  0.40010900  1
  O  O5  1  0.06653400  0.90337600  0.90010900  1
  O  O6  1  0.93346600  0.40337600  0.59989100  1
  O  O7  1  0.56653400  0.59662400  0.09989100  1
  O  O8  1  0.48273000  0.73604100  0.33423100  1
  O  O9  1  0.01727000  0.26395900  0.83423100  1
  O  O10  1  0.98273000  0.76395900  0.66576900  1
  O  O11  1  0.51727000  0.23604100  0.16576900  1
  O  O12  1  0.89549400  0.61257200  0.41394100  1
  O  O13  1  0.60450600  0.38742800  0.91394100  1
  O  O14  1  0.39549400  0.88742800  0.58605900  1
  O  O15  1  0.10450600  0.11257200  0.08605900  1
  O  O16  1  0.89064000  0.41609000  0.06936800  1
  O  O17  1  0.60936000  0.58391000  0.56936800  1
  O  O18  1  0.39064000  0.08391000  0.93063200  1
  O  O19  1  0.10936000  0.91609000  0.43063200  1
  O  O20  1  0.33013400  0.84982400  0.10691000  1
  O  O21  1  0.16986600  0.15017600  0.60691000  1
  O  O22  1  0.83013400  0.65017600  0.89309000  1
  O  O23  1  0.66986600  0.34982400  0.39309000  1
  O  O24  1  0.65867100  0.87188500  0.81950100  1
  O  O25  1  0.84132900  0.12811500  0.31950100  1
  O  O26  1  0.15867100  0.62811500  0.18049900  1
  O  O27  1  0.34132900  0.37188500  0.68049900  1
loop_
_geom_bond_atom_site_label_1
_geom_bond_atom_site_label_2
_geom_bond_distance
_geom_bond_site_symmetry_2
Ba0 O14 2.767915 1_555
Ba0 O10 2.791501 1_555
Ba0 O19 2.798186 1_655
Ba0 O12 2.813207 1_555
Ba0 O8 2.869351 1_555
Ba0 O1 2.901022 1_565
Ba0 O25 2.960334 1_565
Ba0 O17 3.002709 1_555
Ba0 O4 3.149666 1_565
Ba0 O0 3.373848 1_555
Ba1 O15 2.767915 1_656
Ba1 O11 2.791501 1_556
Ba1 O18 2.798186 1_555
Ba1 O13 2.813207 1_555
Ba1 O9 2.869351 1_655
Ba1 O0 2.901022 1_546
Ba1 O24 2.960334 1_545
Ba1 O16 3.002709 1_556
Ba1 O5 3.149666 1_645
Ba1 O1 3.373848 1_555
Ba2 O12 2.767915 1_455
Ba2 O8 2.791501 1_555
Ba2 O17 2.798186 1_555
Ba2 O14 2.813207 1_555
Ba2 O10 2.869351 1_455
Ba2 O3 2.901022 1_555
Ba2 O27 2.960334 1_555
Ba2 O19 3.002709 1_555
Ba2 O6 3.149666 1_455
Ba2 O2 3.373848 1_555
Ba3 O13 2.767915 1_554
Ba3 O9 2.791501 1_554
Ba3 O16 2.798186 1_455
Ba3 O15 2.813207 1_555
Ba3 O11 2.869351 1_555
Ba3 O2 2.901022 1_554
Ba3 O26 2.960334 1_555
Ba3 O18 3.002709 1_554
Ba3 O7 3.149666 1_555
Ba3 O3 3.373848 1_555
O0 V0 1.678479 1_555
O0 O25 2.872149 1_565
O1 V1 1.678479 1_555
O1 O24 2.872149 1_545
O2 V2 1.678479 1_555
O2 O27 2.872149 1_555
O3 V3 1.678479 1_555
O4 V6 1.818954 1_555
O4 V3 1.819176 1_555
O5 V7 1.818954 1_556
O5 V2 1.819176 1_555
O6 V4 1.818954 1_555
O6 V1 1.819176 1_555
O7 V5 1.818954 1_554
O7 V0 1.819176 1_555
O8 V0 1.687580 1_555
O9 V1 1.687580 1_455
O10 V2 1.687580 1_655
O10 O24 3.062787 1_555
O11 V3 1.687580 1_555
O11 O25 3.062787 1_555
O12 V4 1.684751 1_555
O12 O26 3.159993 1_655
O13 V5 1.684751 1_555
O13 O27 3.159993 1_555
O14 V6 1.684751 1_565
O14 O24 3.159993 1_555
O15 V7 1.684751 1_545
O15 O25 3.159993 1_455
O16 V5 1.678648 1_554
O16 O26 3.003009 1_655
O17 V4 1.678648 1_555
O17 O27 3.003009 1_555
O18 V7 1.678648 1_546
O18 O24 3.003009 1_545
O19 V6 1.678648 1_565
O19 O25 3.003009 1_465
O20 V7 1.814580 1_555
O20 V0 1.815979 1_555
O20 O26 2.500791 1_555
O21 V6 1.814580 1_555
O21 V1 1.815979 1_455
O21 O27 2.500791 1_555
O22 V5 1.814580 1_555
O22 V2 1.815979 1_655
O22 O24 2.500791 1_555
O23 V4 1.814580 1_555
O23 V3 1.815979 1_555
O23 O25 2.500791 1_555
O24 O5 3.149917 1_655
O25 O4 3.149917 1_555
O26 O3 2.872149 1_555
O26 O8 3.062787 1_555
O26 O7 3.149917 1_555
O27 O9 3.062787 1_555
O27 O6 3.149917 1_455
