# generated using pymatgen
data_Li3CuS2
_symmetry_space_group_name_H-M   'P 1'
_cell_length_a   7.95579433
_cell_length_b   7.95579433
_cell_length_c   7.95579433
_cell_angle_alpha   109.47122063
_cell_angle_beta   109.47122063
_cell_angle_gamma   109.47122063
_symmetry_Int_Tables_number   1
_chemical_formula_structural   Li3CuS2
_chemical_formula_sum   'Li12 Cu4 S8'
_cell_volume   387.64014913
_cell_formula_units_Z   4
loop_
 _symmetry_equiv_pos_site_id
 _symmetry_equiv_pos_as_xyz
  1  'x, y, z'
loop_
 _atom_site_type_symbol
 _atom_site_label
 _atom_site_symmetry_multiplicity
 _atom_site_fract_x
 _atom_site_fract_y
 _atom_site_fract_z
 _atom_site_occupancy
  Li  Li0  1  0.86581600  0.25000000  0.11581600  1
  Li  Li1  1  0.86581600  0.11581600  0.75000000  1
  Li  Li2  1  0.63418400  0.38418400  0.25000000  1
  Li  Li3  1  0.75000000  0.38418400  0.63418400  1
  Li  Li4  1  0.75000000  0.86581600  0.11581600  1
  Li  Li5  1  0.63418400  0.75000000  0.38418400  1
  Li  Li6  1  0.38418400  0.25000000  0.63418400  1
  Li  Li7  1  0.25000000  0.63418400  0.38418400  1
  Li  Li8  1  0.25000000  0.11581600  0.86581600  1
  Li  Li9  1  0.11581600  0.86581600  0.25000000  1
  Li  Li10  1  0.38418400  0.63418400  0.75000000  1
  Li  Li11  1  0.11581600  0.75000000  0.86581600  1
  Cu  Cu0  1  0.50000000  0.00000000  0.25000000  1
  Cu  Cu1  1  0.25000000  0.50000000  0.00000000  1
  Cu  Cu2  1  0.25000000  0.25000000  0.25000000  1
  Cu  Cu3  1  0.00000000  0.25000000  0.50000000  1
  S  S0  1  0.98069600  0.50000000  0.00000000  1
  S  S1  1  0.51930400  0.50000000  0.00000000  1
  S  S2  1  0.50000000  0.00000000  0.51930400  1
  S  S3  1  0.50000000  0.00000000  0.98069600  1
  S  S4  1  0.51930400  0.51930400  0.51930400  1
  S  S5  1  0.98069600  0.98069600  0.98069600  1
  S  S6  1  0.00000000  0.51930400  0.50000000  1
  S  S7  1  0.00000000  0.98069600  0.50000000  1
loop_
_geom_bond_atom_site_label_1
_geom_bond_atom_site_label_2
_geom_bond_distance
_geom_bond_site_symmetry_2
Li0 S0 2.492294 1_555
Li0 S3 2.492294 1_554
Li0 S6 2.646950 1_655
Li0 S5 2.646950 1_544
Li0 Li2 2.745640 1_555
Li0 Li1 2.745640 1_554
Li0 Li7 2.883332 1_655
Li0 Li4 2.883332 1_545
Li1 S5 2.492294 1_545
Li1 S2 2.492294 1_555
Li1 S0 2.646950 1_556
Li1 S7 2.646950 1_645
Li1 Li5 2.745640 1_545
Li1 Li3 2.883332 1_555
Li1 Li8 2.883332 1_655
Li2 S6 2.492294 1_655
Li2 S1 2.492294 1_555
Li2 S3 2.646950 1_554
Li2 S4 2.646950 1_555
Li2 Li5 2.745640 1_555
Li2 Li3 2.883332 1_555
Li2 Li8 2.883332 1_554
Li3 S0 2.492294 1_556
Li3 S4 2.492294 1_555
Li3 S2 2.646950 1_555
Li3 S6 2.646950 1_655
Li3 Li6 2.745640 1_555
Li4 S5 2.492294 1_554
Li4 S1 2.492294 1_555
Li4 S3 2.646950 1_564
Li4 S7 2.646950 1_655
Li4 Li9 2.745640 1_655
Li4 Li5 2.883332 1_555
Li5 S7 2.492294 1_655
Li5 S4 2.492294 1_555
Li5 S1 2.646950 1_555
Li5 S2 2.646950 1_565
Li5 Li7 2.883332 1_555
Li6 S1 2.492294 1_556
Li6 S2 2.492294 1_555
Li6 S7 2.646950 1_545
Li6 S4 2.646950 1_555
Li6 Li8 2.745640 1_555
Li6 Li9 2.883332 1_545
Li7 S2 2.492294 1_565
Li7 S6 2.492294 1_555
Li7 S0 2.646950 1_455
Li7 S4 2.646950 1_555
Li7 Li9 2.745640 1_555
Li8 S3 2.492294 1_555
Li8 S7 2.492294 1_545
Li8 S1 2.646950 1_556
Li8 S5 2.646950 1_445
Li9 S7 2.492294 1_555
Li9 S0 2.492294 1_455
Li9 S2 2.646950 1_565
Li9 S5 2.646950 1_454
Li10 S3 2.492294 1_565
Li10 S4 2.492294 1_555
Li10 S6 2.646950 1_555
Li10 S1 2.646950 1_556
Li10 Li4 2.745640 1_556
Li10 Li7 2.745640 1_555
Li10 Li11 2.883332 1_555
Li10 Li6 2.883332 1_555
Li11 S5 2.492294 1_455
Li11 S6 2.492294 1_555
Li11 S3 2.646950 1_565
Li11 S0 2.646950 1_456
Li11 Li8 2.745640 1_565
Li11 Li3 2.745640 1_455
Li11 Li9 2.883332 1_556
Cu0 S2 2.142527 1_555
Cu0 S3 2.142527 1_554
Cu0 Li2 2.882097 1_555
Cu0 Li5 2.882097 1_545
Cu0 Li3 2.882097 1_555
Cu0 Li9 2.882097 1_545
Cu0 Li4 2.882097 1_545
Cu0 Li11 2.882097 1_544
Cu1 S1 2.142527 1_555
Cu1 S0 2.142527 1_455
Cu1 Li7 2.882097 1_555
Cu1 Li10 2.882097 1_554
Cu1 Li5 2.882097 1_555
Cu1 Li1 2.882097 1_454
Cu1 Li8 2.882097 1_554
Cu1 Li11 2.882097 1_554
Cu2 S4 2.142527 1_555
Cu2 S5 2.142527 1_444
Cu2 Li7 2.882097 1_555
Cu2 Li2 2.882097 1_555
Cu2 Li6 2.882097 1_555
Cu2 Li0 2.882097 1_455
Cu2 Li8 2.882097 1_554
Cu2 Li9 2.882097 1_545
Cu3 S6 2.142527 1_555
Cu3 S7 2.142527 1_545
Cu3 Li6 2.882097 1_555
Cu3 Li10 2.882097 1_555
Cu3 Li3 2.882097 1_455
Cu3 Li0 2.882097 1_455
Cu3 Li4 2.882097 1_445
Cu3 Li1 2.882097 1_455
