# generated using pymatgen
data_Eu2Al4O9
_symmetry_space_group_name_H-M   'P 1'
_cell_length_a   5.75232800
_cell_length_b   7.53177200
_cell_length_c   8.43920300
_cell_angle_alpha   90.00000000
_cell_angle_beta   90.00000000
_cell_angle_gamma   90.00000000
_symmetry_Int_Tables_number   1
_chemical_formula_structural   Eu2Al4O9
_chemical_formula_sum   'Eu4 Al8 O18'
_cell_volume   365.63035162
_cell_formula_units_Z   2
loop_
 _symmetry_equiv_pos_site_id
 _symmetry_equiv_pos_as_xyz
  1  'x, y, z'
loop_
 _atom_site_type_symbol
 _atom_site_label
 _atom_site_symmetry_multiplicity
 _atom_site_fract_x
 _atom_site_fract_y
 _atom_site_fract_z
 _atom_site_occupancy
  Eu  Eu0  1  0.50000000  0.65665000  0.68415200  1
  Eu  Eu1  1  0.50000000  0.84335000  0.18415200  1
  Eu  Eu2  1  0.50000000  0.15665000  0.81584800  1
  Eu  Eu3  1  0.50000000  0.34335000  0.31584800  1
  Al  Al0  1  0.75658700  0.50000000  0.00000000  1
  Al  Al1  1  0.24341300  0.50000000  0.00000000  1
  Al  Al2  1  0.00000000  0.63830900  0.33574400  1
  Al  Al3  1  0.00000000  0.86169100  0.83574400  1
  Al  Al4  1  0.75658700  0.00000000  0.50000000  1
  Al  Al5  1  0.24341300  0.00000000  0.50000000  1
  Al  Al6  1  0.00000000  0.13830900  0.16425600  1
  Al  Al7  1  0.00000000  0.36169100  0.66425600  1
  O  O0  1  0.00000000  0.50000000  0.50000000  1
  O  O1  1  0.25149200  0.59969800  0.21695100  1
  O  O2  1  0.74850800  0.59969800  0.21695100  1
  O  O3  1  0.00000000  0.64872000  0.92688600  1
  O  O4  1  0.50000000  0.65848000  0.95115400  1
  O  O5  1  0.50000000  0.84152000  0.45115400  1
  O  O6  1  0.00000000  0.85128000  0.42688600  1
  O  O7  1  0.74850800  0.90030200  0.71695100  1
  O  O8  1  0.25149200  0.90030200  0.71695100  1
  O  O9  1  0.00000000  0.00000000  0.00000000  1
  O  O10  1  0.74850800  0.09969800  0.28304900  1
  O  O11  1  0.25149200  0.09969800  0.28304900  1
  O  O12  1  0.00000000  0.14872000  0.57311400  1
  O  O13  1  0.50000000  0.15848000  0.54884600  1
  O  O14  1  0.50000000  0.34152000  0.04884600  1
  O  O15  1  0.00000000  0.35128000  0.07311400  1
  O  O16  1  0.74850800  0.40030200  0.78304900  1
  O  O17  1  0.25149200  0.40030200  0.78304900  1
loop_
_geom_bond_atom_site_label_1
_geom_bond_atom_site_label_2
_geom_bond_distance
_geom_bond_site_symmetry_2
Eu0 O4 2.253326 1_555
Eu0 O7 2.342604 1_555
Eu0 O8 2.342604 1_555
Eu0 O5 2.409394 1_555
Eu0 O16 2.543199 1_555
Eu0 O17 2.543199 1_555
Eu1 O5 2.253326 1_555
Eu1 O1 2.342604 1_555
Eu1 O2 2.342604 1_555
Eu1 O4 2.409394 1_554
Eu1 O11 2.543199 1_565
Eu1 O10 2.543199 1_565
Eu2 O13 2.253326 1_555
Eu2 O16 2.342604 1_555
Eu2 O17 2.342604 1_555
Eu2 O14 2.409394 1_556
Eu2 O8 2.543199 1_545
Eu2 O7 2.543199 1_545
Eu3 O14 2.253326 1_555
Eu3 O10 2.342604 1_555
Eu3 O11 2.342604 1_555
Eu3 O13 2.409394 1_555
Eu3 O2 2.543199 1_555
Eu3 O1 2.543199 1_555
Al0 O15 1.896295 1_655
Al0 O3 1.896295 1_654
Al0 O14 1.942469 1_555
Al0 O4 1.942469 1_554
Al0 O2 1.979441 1_555
Al0 O16 1.979441 1_554
Al1 O15 1.896295 1_555
Al1 O3 1.896295 1_554
Al1 O14 1.942469 1_555
Al1 O4 1.942469 1_554
Al1 O1 1.979441 1_555
Al1 O17 1.979441 1_554
Al2 O0 1.733980 1_555
Al2 O6 1.778929 1_555
Al2 O1 1.783943 1_555
Al2 O2 1.783943 1_455
Al3 O9 1.733980 1_566
Al3 O3 1.778929 1_555
Al3 O8 1.783943 1_555
Al3 O7 1.783943 1_455
Al4 O6 1.896295 1_645
Al4 O12 1.896295 1_655
Al4 O5 1.942469 1_545
Al4 O13 1.942469 1_555
Al4 O10 1.979441 1_555
Al4 O7 1.979441 1_545
Al5 O6 1.896295 1_545
Al5 O12 1.896295 1_555
Al5 O5 1.942469 1_545
Al5 O13 1.942469 1_555
Al5 O11 1.979441 1_555
Al5 O8 1.979441 1_545
Al6 O9 1.733980 1_555
Al6 O15 1.778929 1_555
Al6 O11 1.783943 1_555
Al6 O10 1.783943 1_455
Al7 O0 1.733980 1_555
Al7 O12 1.778929 1_555
Al7 O17 1.783943 1_555
Al7 O16 1.783943 1_455
