# generated using pymatgen
data_PH5(NO2)2
_symmetry_space_group_name_H-M   'P 1'
_cell_length_a   5.59869500
_cell_length_b   7.94288600
_cell_length_c   10.75854600
_cell_angle_alpha   90.00000000
_cell_angle_beta   90.00000000
_cell_angle_gamma   90.00000000
_symmetry_Int_Tables_number   1
_chemical_formula_structural   PH5(NO2)2
_chemical_formula_sum   'P4 H20 N8 O16'
_cell_volume   478.43034732
_cell_formula_units_Z   4
loop_
 _symmetry_equiv_pos_site_id
 _symmetry_equiv_pos_as_xyz
  1  'x, y, z'
loop_
 _atom_site_type_symbol
 _atom_site_label
 _atom_site_symmetry_multiplicity
 _atom_site_fract_x
 _atom_site_fract_y
 _atom_site_fract_z
 _atom_site_occupancy
  P  P0  1  0.90893400  0.67901200  0.34262600  1
  P  P1  1  0.59106600  0.32098800  0.84262600  1
  P  P2  1  0.40893400  0.82098800  0.65737400  1
  P  P3  1  0.09106600  0.17901200  0.15737400  1
  H  H0  1  0.32898400  0.68924000  0.18710500  1
  H  H1  1  0.17101600  0.31076000  0.68710500  1
  H  H2  1  0.82898400  0.81076000  0.81289500  1
  H  H3  1  0.67101600  0.18924000  0.31289500  1
  H  H4  1  0.52279500  0.59479400  0.09031200  1
  H  H5  1  0.97720500  0.40520600  0.59031200  1
  H  H6  1  0.02279500  0.90520600  0.90968800  1
  H  H7  1  0.47720500  0.09479400  0.40968800  1
  H  H8  1  0.64461900  0.87205900  0.17857300  1
  H  H9  1  0.85538100  0.12794100  0.67857300  1
  H  H10  1  0.14461900  0.62794100  0.82142700  1
  H  H11  1  0.35538100  0.37205900  0.32142700  1
  H  H12  1  0.43463700  0.94957100  0.07656000  1
  H  H13  1  0.06536300  0.05042900  0.57656000  1
  H  H14  1  0.93463700  0.55042900  0.92344000  1
  H  H15  1  0.56536300  0.44957100  0.42344000  1
  H  H16  1  0.67553900  0.83698000  0.02253600  1
  H  H17  1  0.82446100  0.16302000  0.52253600  1
  H  H18  1  0.17553900  0.66302000  0.97746400  1
  H  H19  1  0.32446100  0.33698000  0.47746400  1
  N  N0  1  0.41063600  0.69621500  0.10072500  1
  N  N1  1  0.08936400  0.30378500  0.60072500  1
  N  N2  1  0.91063600  0.80378500  0.89927500  1
  N  N3  1  0.58936400  0.19621500  0.39927500  1
  N  N4  1  0.54999500  0.84841500  0.09564200  1
  N  N5  1  0.95000500  0.15158500  0.59564200  1
  N  N6  1  0.04999500  0.65158500  0.90435800  1
  N  N7  1  0.45000500  0.34841500  0.40435800  1
  O  O0  1  0.18342600  0.68241100  0.35081400  1
  O  O1  1  0.31657400  0.31758900  0.85081400  1
  O  O2  1  0.68342600  0.81758900  0.64918600  1
  O  O3  1  0.81657400  0.18241100  0.14918600  1
  O  O4  1  0.79690500  0.85531900  0.32723400  1
  O  O5  1  0.70309500  0.14468100  0.82723400  1
  O  O6  1  0.29690500  0.64468100  0.67276600  1
  O  O7  1  0.20309500  0.35531900  0.17276600  1
  O  O8  1  0.84798200  0.58232100  0.22032500  1
  O  O9  1  0.65201800  0.41767900  0.72032500  1
  O  O10  1  0.34798100  0.91767900  0.77967500  1
  O  O11  1  0.15201800  0.08232100  0.27967500  1
  O  O12  1  0.79726500  0.58376000  0.45295500  1
  O  O13  1  0.70273500  0.41624000  0.95295500  1
  O  O14  1  0.29726500  0.91624000  0.54704500  1
  O  O15  1  0.20273500  0.08376000  0.04704500  1
loop_
_geom_bond_atom_site_label_1
_geom_bond_atom_site_label_2
_geom_bond_distance
_geom_bond_site_symmetry_2
H0 N0 1.037156 1_555
H0 O0 1.941426 1_555
H1 N1 1.037156 1_555
H1 O1 1.941426 1_555
H2 N2 1.037156 1_555
H2 O2 1.941426 1_555
H3 N3 1.037156 1_555
H3 O3 1.941426 1_555
H4 N0 1.027529 1_555
H5 N1 1.027529 1_655
H6 N2 1.027529 1_455
H7 N3 1.027529 1_555
H8 N4 1.054504 1_555
H8 O4 1.817310 1_555
H9 N5 1.054504 1_555
H9 O5 1.817310 1_555
H10 N6 1.054504 1_555
H10 O6 1.817310 1_555
H11 N7 1.054504 1_555
H11 O7 1.817310 1_555
H12 N4 1.051113 1_555
H12 O15 1.709553 1_565
H13 N5 1.051113 1_455
H13 O14 1.709553 1_545
H14 N6 1.051113 1_655
H14 O13 1.709553 1_555
H15 N7 1.051113 1_555
H15 O12 1.709553 1_555
H16 N4 1.058725 1_555
H17 N5 1.058725 1_555
H18 N6 1.058725 1_555
H19 N7 1.058725 1_555
N0 N4 1.439862 1_555
N1 N5 1.439862 1_455
N2 N6 1.439862 1_655
N3 N7 1.439862 1_555
O0 P0 1.539556 1_455
O1 P1 1.539556 1_555
O2 P2 1.539556 1_555
O3 P3 1.539556 1_655
O4 P0 1.543342 1_555
O5 P1 1.543342 1_555
O6 P2 1.543342 1_555
O7 P3 1.543342 1_555
O8 P0 1.561270 1_555
O9 P1 1.561270 1_555
O10 P2 1.561271 1_555
O11 P3 1.561270 1_555
O12 P0 1.540196 1_555
O13 P1 1.540196 1_555
O14 P2 1.540196 1_555
O15 P3 1.540196 1_555
