# generated using pymatgen
data_Li3Mn3NiO8
_symmetry_space_group_name_H-M   'P 1'
_cell_length_a   5.77509600
_cell_length_b   5.88517144
_cell_length_c   5.93330744
_cell_angle_alpha   119.46143793
_cell_angle_beta   118.86433459
_cell_angle_gamma   90.25534663
_symmetry_Int_Tables_number   1
_chemical_formula_structural   Li3Mn3NiO8
_chemical_formula_sum   'Li3 Mn3 Ni1 O8'
_cell_volume   145.82586895
_cell_formula_units_Z   1
loop_
 _symmetry_equiv_pos_site_id
 _symmetry_equiv_pos_as_xyz
  1  'x, y, z'
loop_
 _atom_site_type_symbol
 _atom_site_label
 _atom_site_symmetry_multiplicity
 _atom_site_fract_x
 _atom_site_fract_y
 _atom_site_fract_z
 _atom_site_occupancy
  Li  Li0  1  0.00000000  0.50000000  0.00000000  1
  Li  Li1  1  0.50000000  0.50000000  0.00000000  1
  Li  Li2  1  0.00000000  0.00000000  0.50000000  1
  Mn  Mn0  1  0.50000000  0.50000000  0.50000000  1
  Mn  Mn1  1  0.50000000  0.00000000  0.00000000  1
  Mn  Mn2  1  0.00000000  0.50000000  0.50000000  1
  Ni  Ni0  1  0.00000000  0.00000000  0.00000000  1
  O  O0  1  0.71660300  0.74196600  0.95690900  1
  O  O1  1  0.23613200  0.74118500  0.94768200  1
  O  O2  1  0.24371200  0.27660300  0.49527400  1
  O  O3  1  0.76295300  0.29095800  0.52149100  1
  O  O4  1  0.23704700  0.70904200  0.47850900  1
  O  O5  1  0.75628800  0.72339700  0.50472600  1
  O  O6  1  0.76386800  0.25881500  0.05231800  1
  O  O7  1  0.28339700  0.25803400  0.04309100  1
loop_
_geom_bond_atom_site_label_1
_geom_bond_atom_site_label_2
_geom_bond_distance
_geom_bond_site_symmetry_2
Li0 O4 2.060331 1_555
Li0 O3 2.060331 1_454
Li0 O7 2.178691 1_555
Li0 O0 2.178691 1_454
Li0 O6 2.189886 1_455
Li0 O1 2.189886 1_554
Li1 O0 2.075807 1_554
Li1 O7 2.075807 1_555
Li1 O6 2.104579 1_555
Li1 O1 2.104579 1_554
Li1 O5 2.172028 1_555
Li1 O2 2.172028 1_554
Li2 O2 2.166617 1_555
Li2 O5 2.166617 1_445
Li2 O4 2.190225 1_545
Li2 O3 2.190225 1_455
Li2 O7 2.332536 1_556
Li2 O0 2.332536 1_444
Mn0 O3 1.954447 1_555
Mn0 O4 1.954447 1_555
Mn0 O5 1.956088 1_555
Mn0 O2 1.956088 1_555
Mn0 O7 1.963306 1_555
Mn0 O0 1.963306 1_555
Mn1 O6 1.948351 1_555
Mn1 O1 1.948351 1_544
Mn1 O0 1.969768 1_544
Mn1 O7 1.969768 1_555
Mn1 O3 2.245127 1_555
Mn1 O4 2.245127 1_544
Mn2 O1 1.925292 1_555
Mn2 O6 1.925292 1_455
Mn2 O3 1.926572 1_455
Mn2 O4 1.926572 1_555
Mn2 O2 1.930952 1_555
Mn2 O5 1.930952 1_455
Ni0 O6 2.058678 1_455
Ni0 O1 2.058678 1_544
Ni0 O7 2.059605 1_555
Ni0 O0 2.059605 1_444
Ni0 O2 2.132405 1_555
Ni0 O5 2.132405 1_444
