# generated using pymatgen
data_Li5Ti2Cu5O12
_symmetry_space_group_name_H-M   'P 1'
_cell_length_a   5.06865373
_cell_length_b   5.06865373
_cell_length_c   9.71972142
_cell_angle_alpha   89.51186562
_cell_angle_beta   89.51186562
_cell_angle_gamma   113.56447755
_symmetry_Int_Tables_number   1
_chemical_formula_structural   Li5Ti2Cu5O12
_chemical_formula_sum   'Li5 Ti2 Cu5 O12'
_cell_volume   228.86084288
_cell_formula_units_Z   1
loop_
 _symmetry_equiv_pos_site_id
 _symmetry_equiv_pos_as_xyz
  1  'x, y, z'
loop_
 _atom_site_type_symbol
 _atom_site_label
 _atom_site_symmetry_multiplicity
 _atom_site_fract_x
 _atom_site_fract_y
 _atom_site_fract_z
 _atom_site_occupancy
  Li  Li0  1  0.84103500  0.67791000  0.25341500  1
  Li  Li1  1  0.68055900  0.85122600  0.74194200  1
  Li  Li2  1  0.32209000  0.15896500  0.74658500  1
  Li  Li3  1  0.14877400  0.31944100  0.25805800  1
  Li  Li4  1  0.08732300  0.91267700  0.50000000  1
  Ti  Ti0  1  0.75541200  0.24458800  0.50000000  1
  Ti  Ti1  1  0.25438900  0.74561100  0.00000000  1
  Cu  Cu0  1  0.92156300  0.07843700  0.00000000  1
  Cu  Cu1  1  0.00112900  0.51208500  0.74790200  1
  Cu  Cu2  1  0.48791500  0.99887100  0.25209800  1
  Cu  Cu3  1  0.58330800  0.41669200  0.00000000  1
  Cu  Cu4  1  0.41508000  0.58492000  0.50000000  1
  O  O0  1  0.01095300  0.20491100  0.63440900  1
  O  O1  1  0.79508900  0.98904700  0.36559100  1
  O  O2  1  0.92091800  0.41739800  0.09797300  1
  O  O3  1  0.58260200  0.07908200  0.90202700  1
  O  O4  1  0.69124200  0.52763200  0.62125100  1
  O  O5  1  0.47236800  0.30875800  0.37874900  1
  O  O6  1  0.52221800  0.69157500  0.12675700  1
  O  O7  1  0.30842500  0.47778200  0.87324300  1
  O  O8  1  0.42738300  0.91438100  0.59873800  1
  O  O9  1  0.08561900  0.57261700  0.40126200  1
  O  O10  1  0.19056700  0.00596000  0.13108400  1
  O  O11  1  0.99404000  0.80943300  0.86891600  1
loop_
_geom_bond_atom_site_label_1
_geom_bond_atom_site_label_2
_geom_bond_distance
_geom_bond_site_symmetry_2
Li0 O1 2.012146 1_555
Li0 O6 2.062441 1_555
Li0 O9 2.105486 1_655
Li0 O2 2.154356 1_555
Li0 O10 2.211872 1_665
Li0 O5 2.367207 1_555
Li1 O8 2.009457 1_555
Li1 O4 2.042542 1_555
Li1 O11 2.095418 1_555
Li1 O3 2.115986 1_565
Li1 O0 2.156043 1_665
Li1 O7 2.415068 1_555
Li2 O0 2.012146 1_555
Li2 O7 2.062441 1_555
Li2 O8 2.105486 1_545
Li2 O3 2.154356 1_555
Li2 O11 2.211872 1_445
Li2 O4 2.367207 1_555
Li3 O9 2.009457 1_555
Li3 O5 2.042542 1_555
Li3 O10 2.095418 1_555
Li3 O2 2.115986 1_455
Li3 O1 2.156043 1_445
Li3 O6 2.415068 1_555
Li4 O8 1.976990 1_555
Li4 O9 1.976990 1_555
Li4 O0 2.129184 1_565
Li4 O1 2.129184 1_455
Li4 O5 2.452762 1_565
Li4 O4 2.452762 1_455
Cu0 O2 1.972544 1_555
Cu0 O3 1.972544 1_554
Cu0 O10 2.009852 1_655
Cu0 O11 2.009852 1_544
Cu0 O6 2.490564 1_545
Cu0 O7 2.490564 1_654
Cu1 O11 1.931085 1_455
Cu1 O0 1.932302 1_555
Cu1 O4 2.029530 1_455
Cu1 O7 2.045908 1_555
Cu1 O8 2.702147 1_555
Cu2 O10 1.931085 1_565
Cu2 O1 1.932302 1_555
Cu2 O5 2.029530 1_565
Cu2 O6 2.045908 1_555
Cu2 O9 2.702147 1_555
Cu3 O2 1.964195 1_555
Cu3 O3 1.964195 1_554
Cu3 O6 1.980594 1_555
Cu3 O7 1.980594 1_554
Cu3 O10 2.553076 1_555
Cu3 O11 2.553076 1_554
Cu4 O9 1.912755 1_555
Cu4 O8 1.912755 1_555
Cu4 O5 1.944186 1_555
Cu4 O4 1.944186 1_555
Cu4 O1 2.523782 1_555
Cu4 O0 2.523782 1_555
O0 Ti0 1.912452 1_455
O1 Ti0 1.912452 1_565
O2 Ti1 2.056360 1_655
O3 Ti1 2.056360 1_546
O4 Ti0 1.987037 1_555
O5 Ti0 1.987037 1_555
O6 Ti1 1.938008 1_555
O7 Ti1 1.938008 1_556
O8 Ti0 2.051144 1_565
O9 Ti0 2.051144 1_455
O10 Ti1 1.957631 1_545
O11 Ti1 1.957631 1_656
