# generated using pymatgen
data_LiCrCSO7
_symmetry_space_group_name_H-M   'P 1'
_cell_length_a   9.26724167
_cell_length_b   6.38194800
_cell_length_c   5.23087385
_cell_angle_alpha   89.99876927
_cell_angle_beta   86.99906599
_cell_angle_gamma   90.00366659
_symmetry_Int_Tables_number   1
_chemical_formula_structural   LiCrCSO7
_chemical_formula_sum   'Li2 Cr2 C2 S2 O14'
_cell_volume   308.94561169
_cell_formula_units_Z   2
loop_
 _symmetry_equiv_pos_site_id
 _symmetry_equiv_pos_as_xyz
  1  'x, y, z'
loop_
 _atom_site_type_symbol
 _atom_site_label
 _atom_site_symmetry_multiplicity
 _atom_site_fract_x
 _atom_site_fract_y
 _atom_site_fract_z
 _atom_site_occupancy
  Li  Li0  1  0.13574400  0.56149500  0.24745200  1
  Li  Li1  1  0.86428600  0.06150200  0.75254900  1
  Cr  Cr0  1  0.34546000  0.73361200  0.77993600  1
  Cr  Cr1  1  0.65442900  0.23346400  0.22003700  1
  C  C0  1  0.08740800  0.75905900  0.72730400  1
  C  C1  1  0.91256400  0.25901200  0.27266300  1
  S  S0  1  0.42840500  0.23333000  0.72775300  1
  S  S1  1  0.57162000  0.73333100  0.27224900  1
  O  O0  1  0.04102500  0.30138000  0.30258200  1
  O  O1  1  0.14703000  0.73981600  0.95155200  1
  O  O2  1  0.18692900  0.73266200  0.53621800  1
  O  O3  1  0.33557700  0.05006400  0.78911100  1
  O  O4  1  0.33730000  0.41781600  0.79939400  1
  O  O5  1  0.43746800  0.72943900  0.12922600  1
  O  O6  1  0.46935400  0.23925300  0.44775500  1
  O  O7  1  0.53065500  0.73921600  0.55228800  1
  O  O8  1  0.56255200  0.22944500  0.87074200  1
  O  O9  1  0.66270400  0.91785300  0.20065000  1
  O  O10  1  0.66449500  0.55011100  0.21089100  1
  O  O11  1  0.81307500  0.23265000  0.46378900  1
  O  O12  1  0.85294100  0.23977900  0.04849000  1
  O  O13  1  0.95898100  0.80140800  0.69736800  1
loop_
_geom_bond_atom_site_label_1
_geom_bond_atom_site_label_2
_geom_bond_distance
_geom_bond_site_symmetry_2
Li0 O0 1.892799 1_555
Li0 O1 1.919572 1_554
Li0 O2 1.942916 1_555
Li1 O13 1.892724 1_545
Li1 O12 1.919632 1_556
Li1 O11 1.942890 1_555
Cr0 O2 1.994942 1_555
Cr0 O1 2.004034 1_555
Cr0 O4 2.019172 1_555
Cr0 O3 2.022119 1_565
Cr0 O7 2.037348 1_555
Cr0 O5 2.056483 1_556
Cr1 O11 1.995881 1_555
Cr1 O12 2.004578 1_555
Cr1 O9 2.018027 1_545
Cr1 O10 2.023420 1_555
Cr1 O6 2.036669 1_555
Cr1 O8 2.055934 1_554
C0 O13 1.238390 1_455
C0 O1 1.328231 1_555
C0 O2 1.334761 1_555
C1 O0 1.238674 1_655
C1 O12 1.327872 1_555
C1 O11 1.334669 1_555
O3 S0 1.477144 1_555
O4 S0 1.485431 1_555
O5 S1 1.484351 1_555
O6 S0 1.494119 1_555
O7 S1 1.494353 1_555
O8 S0 1.484215 1_555
O9 S1 1.485358 1_555
O10 S1 1.477259 1_555
