# generated using pymatgen
data_KCo2As2HO8
_symmetry_space_group_name_H-M   'P 1'
_cell_length_a   5.08287800
_cell_length_b   8.89893700
_cell_length_c   16.07942666
_cell_angle_alpha   83.26537493
_cell_angle_beta   90.00000000
_cell_angle_gamma   90.00000000
_symmetry_Int_Tables_number   1
_chemical_formula_structural   KCo2As2HO8
_chemical_formula_sum   'K4 Co8 As8 H4 O32'
_cell_volume   722.28956785
_cell_formula_units_Z   4
loop_
 _symmetry_equiv_pos_site_id
 _symmetry_equiv_pos_as_xyz
  1  'x, y, z'
loop_
 _atom_site_type_symbol
 _atom_site_label
 _atom_site_symmetry_multiplicity
 _atom_site_fract_x
 _atom_site_fract_y
 _atom_site_fract_z
 _atom_site_occupancy
  K  K0  1  0.13105500  0.50000000  0.75000000  1
  K  K1  1  0.86894500  0.50000000  0.25000000  1
  K  K2  1  0.16121300  0.00000000  0.25000000  1
  K  K3  1  0.83878700  0.00000000  0.75000000  1
  Co  Co0  1  0.23853000  0.58546800  0.49450400  1
  Co  Co1  1  0.23853000  0.41453200  0.00549600  1
  Co  Co2  1  0.76147000  0.41453200  0.50549600  1
  Co  Co3  1  0.76147000  0.58546800  0.99450400  1
  Co  Co4  1  0.24128200  0.08313800  0.00042100  1
  Co  Co5  1  0.24128200  0.91686200  0.49957900  1
  Co  Co6  1  0.75871800  0.91686200  0.99957900  1
  Co  Co7  1  0.75871800  0.08313800  0.50042100  1
  As  As0  1  0.27492400  0.72759300  0.10395100  1
  As  As1  1  0.27492400  0.27240700  0.39604900  1
  As  As2  1  0.72507600  0.27240700  0.89604900  1
  As  As3  1  0.72507600  0.72759300  0.60395100  1
  As  As4  1  0.26989900  0.77403500  0.88919000  1
  As  As5  1  0.26989900  0.22596500  0.61081000  1
  As  As6  1  0.73010100  0.22596500  0.11081000  1
  As  As7  1  0.73010100  0.77403500  0.38919000  1
  H  H0  1  0.52826000  0.73758600  0.74048700  1
  H  H1  1  0.52826000  0.26241400  0.75951300  1
  H  H2  1  0.47174000  0.26241400  0.25951300  1
  H  H3  1  0.47174000  0.73758600  0.24048700  1
  O  O0  1  0.29479600  0.69840700  0.21334100  1
  O  O1  1  0.29479600  0.30159300  0.28665900  1
  O  O2  1  0.70520400  0.30159300  0.78665900  1
  O  O3  1  0.70520400  0.69840700  0.71334100  1
  O  O4  1  0.09222900  0.57436100  0.07898600  1
  O  O5  1  0.09222900  0.42563900  0.42101400  1
  O  O6  1  0.90777100  0.42563900  0.92101400  1
  O  O7  1  0.90777100  0.57436100  0.57898600  1
  O  O8  1  0.10018400  0.89426600  0.07798300  1
  O  O9  1  0.10018400  0.10573400  0.42201700  1
  O  O10  1  0.89981600  0.10573400  0.92201700  1
  O  O11  1  0.89981600  0.89426600  0.57798300  1
  O  O12  1  0.59868300  0.73356800  0.07156400  1
  O  O13  1  0.59868300  0.26643200  0.42843600  1
  O  O14  1  0.40131700  0.26643200  0.92843600  1
  O  O15  1  0.40131700  0.73356800  0.57156400  1
  O  O16  1  0.29783600  0.79276400  0.78284700  1
  O  O17  1  0.29783600  0.20723600  0.71715300  1
  O  O18  1  0.70216400  0.20723600  0.21715300  1
  O  O19  1  0.70216400  0.79276400  0.28284700  1
  O  O20  1  0.93889100  0.77106600  0.91879100  1
  O  O21  1  0.93889100  0.22893400  0.58120900  1
  O  O22  1  0.06110900  0.22893400  0.08120900  1
  O  O23  1  0.06110900  0.77106600  0.41879100  1
  O  O24  1  0.41110200  0.60143700  0.92846000  1
  O  O25  1  0.41110200  0.39856300  0.57154000  1
  O  O26  1  0.58889800  0.39856300  0.07154000  1
  O  O27  1  0.58889800  0.60143700  0.42846000  1
  O  O28  1  0.41886300  0.92976200  0.92599300  1
  O  O29  1  0.41886300  0.07023800  0.57400700  1
  O  O30  1  0.58113700  0.07023800  0.07400700  1
  O  O31  1  0.58113700  0.92976200  0.42599300  1
loop_
_geom_bond_atom_site_label_1
_geom_bond_atom_site_label_2
_geom_bond_distance
_geom_bond_site_symmetry_2
K0 O2 2.811763 1_455
K0 O3 2.811763 1_455
K0 O16 2.847430 1_555
K0 O17 2.847430 1_555
K0 O6 2.976677 1_455
K0 O7 2.976677 1_455
K0 O25 3.418009 1_555
K0 O24 3.418009 1_555
K1 O1 2.811763 1_655
K1 O0 2.811763 1_655
K1 O19 2.847430 1_555
K1 O18 2.847430 1_555
K1 O5 2.976677 1_655
K1 O4 2.976677 1_655
K1 O26 3.418009 1_555
K1 O27 3.418009 1_555
K2 O1 2.895275 1_555
K2 O0 2.895275 1_545
K2 O18 2.982574 1_455
K2 O19 2.982574 1_445
K2 O9 3.040124 1_555
K2 O8 3.040124 1_545
K2 O23 3.237074 1_545
K2 O22 3.237074 1_555
K2 O31 3.541148 1_545
K2 O30 3.541148 1_555
K3 O2 2.895275 1_555
K3 O3 2.895275 1_545
K3 O17 2.982574 1_655
K3 O16 2.982574 1_645
K3 O11 3.040124 1_545
K3 O10 3.040124 1_555
K3 O20 3.237074 1_545
K3 O21 3.237074 1_555
K3 O28 3.541148 1_545
K3 O29 3.541148 1_555
Co0 O27 2.069798 1_555
Co0 O15 2.083246 1_555
Co0 O5 2.089618 1_555
Co0 O23 2.133458 1_555
Co0 O25 2.141724 1_555
Co0 O7 2.156397 1_455
Co1 O26 2.069798 1_555
Co1 O14 2.083246 1_554
Co1 O4 2.089618 1_555
Co1 O22 2.133458 1_555
Co1 O24 2.141724 1_554
Co1 O6 2.156397 1_454
Co2 O25 2.069798 1_555
Co2 O13 2.083246 1_555
Co2 O7 2.089618 1_555
Co2 O21 2.133458 1_555
Co2 O27 2.141724 1_555
Co2 O5 2.156397 1_655
Co3 O24 2.069798 1_555
Co3 O12 2.083246 1_556
Co3 O6 2.089618 1_555
Co3 O20 2.133458 1_555
Co3 O26 2.141724 1_556
Co3 O4 2.156397 1_656
Co4 O14 2.054065 1_554
Co4 O30 2.089351 1_555
Co4 O8 2.098347 1_545
Co4 O28 2.119664 1_544
Co4 O10 2.140731 1_454
Co4 O22 2.145872 1_555
Co5 O15 2.054065 1_555
Co5 O31 2.089351 1_555
Co5 O9 2.098347 1_565
Co5 O29 2.119664 1_565
Co5 O11 2.140731 1_455
Co5 O23 2.145872 1_555
Co6 O12 2.054065 1_556
Co6 O28 2.089351 1_555
Co6 O10 2.098347 1_565
Co6 O30 2.119664 1_566
Co6 O8 2.140731 1_656
Co6 O20 2.145872 1_555
Co7 O13 2.054065 1_555
Co7 O29 2.089351 1_555
Co7 O11 2.098347 1_545
Co7 O31 2.119664 1_545
Co7 O9 2.140731 1_655
Co7 O21 2.145872 1_555
As0 O12 1.724998 1_555
As0 O4 1.735299 1_555
As0 O8 1.737205 1_555
As0 O0 1.750526 1_555
As1 O13 1.724998 1_555
As1 O5 1.735299 1_555
As1 O9 1.737205 1_555
As1 O1 1.750526 1_555
As2 O14 1.724998 1_555
As2 O6 1.735299 1_555
As2 O10 1.737205 1_555
As2 O2 1.750526 1_555
As3 O15 1.724998 1_555
As3 O7 1.735299 1_555
As3 O11 1.737205 1_555
As3 O3 1.750526 1_555
As4 O16 1.704399 1_555
As4 O28 1.742496 1_555
As4 O24 1.745128 1_555
As4 O20 1.747859 1_455
As5 O17 1.704399 1_555
As5 O29 1.742496 1_555
As5 O25 1.745128 1_555
As5 O21 1.747859 1_455
As6 O18 1.704399 1_555
As6 O30 1.742496 1_555
As6 O26 1.745128 1_555
As6 O22 1.747859 1_655
As7 O19 1.704399 1_555
As7 O31 1.742496 1_555
As7 O27 1.745128 1_555
As7 O23 1.747859 1_655
H0 O3 1.075486 1_555
H0 O16 1.468070 1_555
H0 K3 2.837537 1_565
H0 K0 2.914411 1_555
H1 O2 1.075486 1_555
H1 O17 1.468070 1_555
H1 K3 2.837537 1_555
H1 K0 2.914411 1_555
H2 O1 1.075486 1_555
H2 O18 1.468070 1_555
H2 K2 2.837537 1_555
H2 K1 2.914411 1_555
H3 O0 1.075486 1_555
H3 O19 1.468070 1_555
H3 K2 2.837537 1_565
H3 K1 2.914411 1_555
