# generated using pymatgen
data_Li4Mn3V2Sb3O16
_symmetry_space_group_name_H-M   'P 1'
_cell_length_a   6.15179500
_cell_length_b   6.24524902
_cell_length_c   9.81734254
_cell_angle_alpha   92.53576941
_cell_angle_beta   89.95938018
_cell_angle_gamma   119.16157199
_symmetry_Int_Tables_number   1
_chemical_formula_structural   Li4Mn3V2Sb3O16
_chemical_formula_sum   'Li4 Mn3 V2 Sb3 O16'
_cell_volume   328.95323630
_cell_formula_units_Z   1
loop_
 _symmetry_equiv_pos_site_id
 _symmetry_equiv_pos_as_xyz
  1  'x, y, z'
loop_
 _atom_site_type_symbol
 _atom_site_label
 _atom_site_symmetry_multiplicity
 _atom_site_fract_x
 _atom_site_fract_y
 _atom_site_fract_z
 _atom_site_occupancy
  Li  Li0  1  0.65837500  0.32273800  0.88564300  1
  Li  Li1  1  0.99151900  0.97680000  0.98533900  1
  Li  Li2  1  0.99978600  0.99508600  0.50291700  1
  Li  Li3  1  0.31671200  0.63802600  0.40378900  1
  Mn  Mn0  1  0.82951700  0.66134400  0.21371200  1
  Mn  Mn1  1  0.16807300  0.82951400  0.71028800  1
  Mn  Mn2  1  0.66499800  0.83937100  0.70952700  1
  V  V0  1  0.68104900  0.35605100  0.49919700  1
  V  V1  1  0.34671700  0.70181700  0.97320000  1
  Sb  Sb0  1  0.33739900  0.16819500  0.21631300  1
  Sb  Sb1  1  0.83166700  0.16661900  0.21445700  1
  Sb  Sb2  1  0.17179000  0.34452000  0.71629200  1
  O  O0  1  0.34206600  0.19402000  0.59701200  1
  O  O1  1  0.51981700  0.03690500  0.33650500  1
  O  O2  1  0.65264200  0.30642400  0.10222100  1
  O  O3  1  0.01050000  0.01794100  0.31761100  1
  O  O4  1  0.02319000  0.01657600  0.80325600  1
  O  O5  1  0.85545100  0.18380000  0.59872900  1
  O  O6  1  0.50182800  0.46329400  0.34109400  1
  O  O7  1  0.95667000  0.45771200  0.34164200  1
  O  O8  1  0.15572500  0.30889300  0.10640700  1
  O  O9  1  0.85409000  0.67691100  0.58857900  1
  O  O10  1  0.03010200  0.50212400  0.84640500  1
  O  O11  1  0.46678700  0.51162600  0.85083600  1
  O  O12  1  0.31350000  0.65171600  0.60674700  1
  O  O13  1  0.17877700  0.85694100  0.09891000  1
  O  O14  1  0.45453500  0.95294500  0.84505600  1
  O  O15  1  0.68642600  0.86209600  0.09615700  1
loop_
_geom_bond_atom_site_label_1
_geom_bond_atom_site_label_2
_geom_bond_distance
_geom_bond_site_symmetry_2
Li0 O14 2.040044 1_545
Li0 O10 2.042821 1_655
Li0 O11 2.070911 1_555
Li0 O2 2.132604 1_556
Li1 O4 1.812929 1_665
Li1 O15 1.993789 1_556
Li1 O13 2.011604 1_656
Li1 O8 2.115757 1_666
Li2 O3 1.829724 1_665
Li2 O9 1.967281 1_555
Li2 O5 1.995681 1_565
Li2 O0 2.045077 1_665
Li3 O12 1.991056 1_555
Li3 O6 2.004285 1_555
Li3 O7 2.014087 1_455
Li3 O1 2.305249 1_565
Mn0 O3 2.150327 1_665
Mn0 O2 2.175247 1_555
Mn0 O6 2.204737 1_555
Mn0 O15 2.209900 1_555
Mn0 O7 2.217818 1_555
Mn0 O13 2.222477 1_655
Mn1 O4 1.977743 1_565
Mn1 O12 1.983322 1_555
Mn1 O14 2.009838 1_555
Mn1 O9 2.043380 1_455
Mn1 O10 2.288133 1_555
Mn1 O0 2.326422 1_565
Mn2 O4 2.112630 1_665
Mn2 O12 2.120408 1_555
Mn2 O14 2.181458 1_555
Mn2 O9 2.198662 1_555
Mn2 O5 2.220820 1_565
Mn2 O11 2.327555 1_555
O0 Sb2 2.052397 1_555
O0 V0 2.078815 1_555
O1 Sb0 2.075608 1_555
O1 Sb1 2.083357 1_555
O1 V0 2.302482 1_555
O2 Sb0 2.052238 1_555
O2 Sb1 2.052634 1_555
O3 Sb0 2.038234 1_555
O3 Sb1 2.044101 1_455
O4 Sb2 2.021943 1_555
O5 Sb2 2.030702 1_655
O5 V0 2.117169 1_555
O6 Sb0 1.976260 1_555
O6 V0 2.210741 1_555
O7 Sb1 1.973178 1_555
O7 V0 2.169009 1_555
O8 Sb0 2.056221 1_555
O8 Sb1 2.059871 1_455
O8 V1 2.565989 1_554
O9 V0 1.919766 1_555
O10 Sb2 2.020760 1_555
O10 V1 2.096990 1_555
O11 V1 2.031514 1_555
O11 Sb2 2.040316 1_555
O12 Sb2 2.036802 1_555
O13 Sb0 2.003505 1_565
O13 V1 2.096859 1_554
O14 V1 1.908390 1_555
O15 Sb1 1.978408 1_565
O15 V1 2.164361 1_554
