# generated using pymatgen
data_Fe3OF5
_symmetry_space_group_name_H-M   'P 1'
_cell_length_a   10.76071653
_cell_length_b   10.76071653
_cell_length_c   3.18054200
_cell_angle_alpha   90.00000000
_cell_angle_beta   90.00000000
_cell_angle_gamma   142.79732260
_symmetry_Int_Tables_number   1
_chemical_formula_structural   Fe3OF5
_chemical_formula_sum   'Fe6 O2 F10'
_cell_volume   222.67822933
_cell_formula_units_Z   2
loop_
 _symmetry_equiv_pos_site_id
 _symmetry_equiv_pos_as_xyz
  1  'x, y, z'
loop_
 _atom_site_type_symbol
 _atom_site_label
 _atom_site_symmetry_multiplicity
 _atom_site_fract_x
 _atom_site_fract_y
 _atom_site_fract_z
 _atom_site_occupancy
  Fe  Fe0  1  0.00000000  0.00000000  0.00000000  1
  Fe  Fe1  1  0.50000000  0.50000000  0.50000000  1
  Fe  Fe2  1  0.65447300  0.34552700  0.00000000  1
  Fe  Fe3  1  0.83030900  0.16969100  0.50000000  1
  Fe  Fe4  1  0.16969100  0.83030900  0.50000000  1
  Fe  Fe5  1  0.34552700  0.65447300  0.00000000  1
  O  O0  1  0.60239300  0.39760700  0.50000000  1
  O  O1  1  0.39760700  0.60239300  0.50000000  1
  F  F0  1  0.29500800  0.29500800  0.00000000  1
  F  F1  1  0.37802600  0.03707700  0.00000000  1
  F  F2  1  0.70499200  0.70499200  0.00000000  1
  F  F3  1  0.72934200  0.27065800  0.50000000  1
  F  F4  1  0.06978600  0.93021400  0.50000000  1
  F  F5  1  0.96292300  0.62197400  0.00000000  1
  F  F6  1  0.03707700  0.37802600  0.00000000  1
  F  F7  1  0.93021400  0.06978600  0.50000000  1
  F  F8  1  0.27065800  0.72934200  0.50000000  1
  F  F9  1  0.62197400  0.96292300  0.00000000  1
loop_
_geom_bond_atom_site_label_1
_geom_bond_atom_site_label_2
_geom_bond_distance
_geom_bond_site_symmetry_2
Fe1 O1 2.088528 1_555
Fe1 O0 2.088528 1_555
Fe2 O0 1.912436 1_554
Fe2 O0 1.912436 1_555
Fe5 O1 1.912436 1_555
Fe5 O1 1.912436 1_554
F0 Fe0 2.025212 1_555
F0 Fe1 2.123520 1_554
F0 Fe1 2.123520 1_555
F1 Fe2 2.033998 1_555
F1 Fe4 2.135264 1_544
F1 Fe4 2.135264 1_545
F1 F3 2.828664 1_554
F1 F3 2.828664 1_555
F2 Fe0 2.025212 1_665
F2 Fe1 2.123520 1_554
F2 Fe1 2.123520 1_555
F3 Fe3 2.059441 1_555
F3 Fe2 2.204778 1_555
F3 Fe2 2.204778 1_556
F3 F5 2.828664 1_556
F3 F5 2.828664 1_555
F4 Fe4 2.037780 1_555
F4 Fe0 2.134276 1_565
F4 Fe0 2.134276 1_566
F5 Fe2 2.033998 1_555
F5 Fe4 2.135264 1_654
F5 Fe4 2.135264 1_655
F6 Fe5 2.033998 1_555
F6 Fe3 2.135264 1_455
F6 Fe3 2.135264 1_454
F6 F8 2.828664 1_554
F6 F8 2.828664 1_555
F7 Fe3 2.037780 1_555
F7 Fe0 2.134276 1_655
F7 Fe0 2.134276 1_656
F8 Fe4 2.059441 1_555
F8 Fe5 2.204778 1_555
F8 Fe5 2.204778 1_556
F8 F9 2.828664 1_556
F8 F9 2.828664 1_555
F9 Fe5 2.033998 1_555
F9 Fe3 2.135264 1_564
F9 Fe3 2.135264 1_565
