# generated using pymatgen
data_LiVF5
_symmetry_space_group_name_H-M   'P 1'
_cell_length_a   5.99398230
_cell_length_b   5.99398230
_cell_length_c   10.87727700
_cell_angle_alpha   90.00000000
_cell_angle_beta   90.00000000
_cell_angle_gamma   98.87053668
_symmetry_Int_Tables_number   1
_chemical_formula_structural   LiVF5
_chemical_formula_sum   'Li4 V4 F20'
_cell_volume   386.12268363
_cell_formula_units_Z   4
loop_
 _symmetry_equiv_pos_site_id
 _symmetry_equiv_pos_as_xyz
  1  'x, y, z'
loop_
 _atom_site_type_symbol
 _atom_site_label
 _atom_site_symmetry_multiplicity
 _atom_site_fract_x
 _atom_site_fract_y
 _atom_site_fract_z
 _atom_site_occupancy
  Li  Li0  1  0.84708800  0.15291200  0.00000000  1
  Li  Li1  1  0.65291200  0.34708800  0.50000000  1
  Li  Li2  1  0.34708800  0.65291200  0.50000000  1
  Li  Li3  1  0.15291200  0.84708800  0.00000000  1
  V  V0  1  0.15444300  0.15444300  0.39405900  1
  V  V1  1  0.34555700  0.34555700  0.89405900  1
  V  V2  1  0.65444300  0.65444300  0.10594100  1
  V  V3  1  0.84555700  0.84555700  0.60594100  1
  F  F0  1  0.86904400  0.13095600  0.50000000  1
  F  F1  1  0.99689100  0.99689100  0.73285000  1
  F  F2  1  0.42121400  0.07964400  0.35154600  1
  F  F3  1  0.42035600  0.07878600  0.85154600  1
  F  F4  1  0.17087400  0.17087400  0.02557300  1
  F  F5  1  0.63095600  0.36904400  0.00000000  1
  F  F6  1  0.32912600  0.32912600  0.52557300  1
  F  F7  1  0.07964400  0.42121400  0.35154600  1
  F  F8  1  0.07878600  0.42035600  0.85154600  1
  F  F9  1  0.50310900  0.50310900  0.23285000  1
  F  F10  1  0.49689100  0.49689100  0.76715000  1
  F  F11  1  0.92121400  0.57964400  0.14845400  1
  F  F12  1  0.92035600  0.57878600  0.64845400  1
  F  F13  1  0.67087400  0.67087400  0.47442700  1
  F  F14  1  0.36904400  0.63095600  0.00000000  1
  F  F15  1  0.82912600  0.82912600  0.97442700  1
  F  F16  1  0.57964400  0.92121400  0.14845400  1
  F  F17  1  0.57878600  0.92035600  0.64845400  1
  F  F18  1  0.00310900  0.00310900  0.26715000  1
  F  F19  1  0.13095600  0.86904400  0.50000000  1
loop_
_geom_bond_atom_site_label_1
_geom_bond_atom_site_label_2
_geom_bond_distance
_geom_bond_site_symmetry_2
F0 Li1 1.968296 1_555
F0 V3 2.049358 1_545
F0 V0 2.049358 1_655
F0 F19 2.385211 1_645
F0 F17 2.559408 1_545
F0 F7 2.559408 1_655
F1 V3 1.815887 1_555
F2 V0 1.786845 1_555
F2 Li1 2.533659 1_555
F3 V1 1.786845 1_555
F3 Li3 2.533659 1_546
F3 F5 2.559408 1_556
F4 Li3 1.947076 1_545
F4 Li0 1.947076 1_455
F4 V1 1.975064 1_554
F5 Li0 1.968296 1_555
F5 V2 2.049358 1_555
F5 V1 2.049358 1_554
F6 Li2 1.947076 1_555
F6 Li1 1.947076 1_555
F6 V0 1.975064 1_555
F7 V0 1.786845 1_555
F7 Li2 2.533659 1_555
F8 V1 1.786845 1_555
F8 Li0 2.533659 1_456
F9 V2 1.815887 1_555
F10 V1 1.815887 1_555
F11 V2 1.786845 1_555
F11 Li3 2.533659 1_655
F11 F5 2.559408 1_555
F12 V3 1.786845 1_555
F12 Li1 2.533659 1_555
F12 F19 2.559408 1_655
F13 Li1 1.947076 1_555
F13 Li2 1.947076 1_555
F13 V3 1.975064 1_555
F14 Li3 1.968296 1_555
F14 V2 2.049358 1_555
F14 V1 2.049358 1_554
F14 F5 2.385211 1_555
F14 F16 2.559408 1_555
F14 F8 2.559408 1_554
F15 Li0 1.947076 1_566
F15 Li3 1.947076 1_656
F15 V2 1.975064 1_556
F16 V2 1.786845 1_555
F16 Li0 2.533659 1_565
F17 V3 1.786845 1_555
F17 Li2 2.533659 1_555
F18 V0 1.815887 1_555
F19 Li2 1.968296 1_555
F19 V3 2.049358 1_455
F19 V0 2.049358 1_565
F19 F2 2.559408 1_565
