# generated using pymatgen
data_Fe4O7F
_symmetry_space_group_name_H-M   'P 1'
_cell_length_a   5.51374899
_cell_length_b   5.51374899
_cell_length_c   4.61571698
_cell_angle_alpha   88.37359540
_cell_angle_beta   88.37359540
_cell_angle_gamma   66.59746352
_symmetry_Int_Tables_number   1
_chemical_formula_structural   Fe4O7F
_chemical_formula_sum   'Fe4 O7 F1'
_cell_volume   128.70661747
_cell_formula_units_Z   1
loop_
 _symmetry_equiv_pos_site_id
 _symmetry_equiv_pos_as_xyz
  1  'x, y, z'
loop_
 _atom_site_type_symbol
 _atom_site_label
 _atom_site_symmetry_multiplicity
 _atom_site_fract_x
 _atom_site_fract_y
 _atom_site_fract_z
 _atom_site_occupancy
  Fe  Fe0  1  0.99928000  0.99928000  0.49881400  1
  Fe  Fe1  1  0.50679000  0.50679000  0.51276200  1
  Fe  Fe2  1  0.50231200  0.98912600  0.99129300  1
  Fe  Fe3  1  0.98912600  0.50231200  0.99129300  1
  O  O0  1  0.65055000  0.65055000  0.80216700  1
  O  O1  1  0.15757900  0.15757900  0.81432900  1
  O  O2  1  0.15528800  0.65170500  0.69421000  1
  O  O3  1  0.65170500  0.15528800  0.69421000  1
  O  O4  1  0.84725400  0.34675900  0.30663100  1
  O  O5  1  0.34675900  0.84725400  0.30663100  1
  O  O6  1  0.84206500  0.84206500  0.18434200  1
  F  F0  1  0.35129000  0.35129000  0.20331700  1
loop_
_geom_bond_atom_site_label_1
_geom_bond_atom_site_label_2
_geom_bond_distance
_geom_bond_site_symmetry_2
Fe0 O5 1.957093 1_655
Fe0 O4 1.957093 1_565
Fe0 O3 1.965318 1_565
Fe0 O2 1.965318 1_655
Fe0 O6 2.085542 1_555
Fe0 O1 2.096187 1_665
Fe1 O0 1.913197 1_555
Fe1 O2 1.952374 1_555
Fe1 O3 1.952374 1_555
Fe1 O4 1.959152 1_555
Fe1 O5 1.959152 1_555
Fe2 O0 1.937793 1_555
Fe2 O1 1.945620 1_565
Fe2 O6 1.951376 1_556
Fe2 O3 1.965267 1_565
Fe2 O5 1.965580 1_556
Fe3 O0 1.937793 1_555
Fe3 O1 1.945620 1_655
Fe3 O6 1.951376 1_556
Fe3 O2 1.965267 1_655
Fe3 O4 1.965580 1_556
O2 O5 2.482937 1_555
O3 O4 2.482937 1_555
F0 Fe1 2.057495 1_555
F0 Fe3 2.093429 1_454
F0 Fe2 2.093429 1_544
F0 O3 2.774458 1_555
F0 O2 2.774458 1_555
F0 O4 2.779435 1_555
F0 O5 2.779435 1_555
F0 O5 2.816173 1_545
F0 O4 2.816173 1_455
F0 O2 2.816882 1_554
F0 O3 2.816882 1_554
