# generated using pymatgen
data_Y2SeO2
_symmetry_space_group_name_H-M   'P 1'
_cell_length_a   13.34744217
_cell_length_b   13.34744217
_cell_length_c   13.34744217
_cell_angle_alpha   146.44924209
_cell_angle_beta   146.44924209
_cell_angle_gamma   48.17996724
_symmetry_Int_Tables_number   1
_chemical_formula_structural   Y2SeO2
_chemical_formula_sum   'Y16 Se8 O16'
_cell_volume   723.32588564
_cell_formula_units_Z   8
loop_
 _symmetry_equiv_pos_site_id
 _symmetry_equiv_pos_as_xyz
  1  'x, y, z'
loop_
 _atom_site_type_symbol
 _atom_site_label
 _atom_site_symmetry_multiplicity
 _atom_site_fract_x
 _atom_site_fract_y
 _atom_site_fract_z
 _atom_site_occupancy
  Y  Y0_0  1  0.17159800  0.17159800  0.00000000  1
  Y  Y0_1  1  0.17159800  0.17159800  0.50000000  1
  Y  Y0_2  1  0.17159800  0.67159800  0.00000000  1
  Y  Y0_3  1  0.17159800  0.67159800  0.50000000  1
  Y  Y0_4  1  0.67159800  0.17159800  0.00000000  1
  Y  Y0_5  1  0.67159800  0.17159800  0.50000000  1
  Y  Y0_6  1  0.67159800  0.67159800  0.00000000  1
  Y  Y0_7  1  0.67159800  0.67159800  0.50000000  1
  Y  Y1_0  1  0.32840200  0.32840200  0.00000000  1
  Y  Y1_1  1  0.32840200  0.32840200  0.50000000  1
  Y  Y1_2  1  0.32840200  0.82840200  0.00000000  1
  Y  Y1_3  1  0.32840200  0.82840200  0.50000000  1
  Y  Y1_4  1  0.82840200  0.32840200  0.00000000  1
  Y  Y1_5  1  0.82840200  0.32840200  0.50000000  1
  Y  Y1_6  1  0.82840200  0.82840200  0.00000000  1
  Y  Y1_7  1  0.82840200  0.82840200  0.50000000  1
  Se  Se0_0  1  0.00000000  0.00000000  0.00000000  1
  Se  Se0_1  1  0.00000000  0.00000000  0.50000000  1
  Se  Se0_2  1  0.00000000  0.50000000  0.00000000  1
  Se  Se0_3  1  0.00000000  0.50000000  0.50000000  1
  Se  Se0_4  1  0.50000000  0.00000000  0.00000000  1
  Se  Se0_5  1  0.50000000  0.00000000  0.50000000  1
  Se  Se0_6  1  0.50000000  0.50000000  0.00000000  1
  Se  Se0_7  1  0.50000000  0.50000000  0.50000000  1
  O  O0_0  1  0.37500000  0.12500000  0.25000000  1
  O  O0_1  1  0.37500000  0.12500000  0.75000000  1
  O  O0_2  1  0.37500000  0.62500000  0.25000000  1
  O  O0_3  1  0.37500000  0.62500000  0.75000000  1
  O  O0_4  1  0.87500000  0.12500000  0.25000000  1
  O  O0_5  1  0.87500000  0.12500000  0.75000000  1
  O  O0_6  1  0.87500000  0.62500000  0.25000000  1
  O  O0_7  1  0.87500000  0.62500000  0.75000000  1
  O  O1_0  1  0.12500000  0.37500000  0.25000000  1
  O  O1_1  1  0.12500000  0.37500000  0.75000000  1
  O  O1_2  1  0.12500000  0.87500000  0.25000000  1
  O  O1_3  1  0.12500000  0.87500000  0.75000000  1
  O  O1_4  1  0.62500000  0.37500000  0.25000000  1
  O  O1_5  1  0.62500000  0.37500000  0.75000000  1
  O  O1_6  1  0.62500000  0.87500000  0.25000000  1
  O  O1_7  1  0.62500000  0.87500000  0.75000000  1
loop_
_geom_bond_atom_site_label_1
_geom_bond_atom_site_label_2
_geom_bond_distance
_geom_bond_site_symmetry_2
Se0_0 Y1_4 3.327290 1_455
Se0_0 Y1_2 3.327290 1_545
Se0_0 Y1_1 3.327290 1_555
Se0_0 Y1_7 3.327290 1_444
Se0_0 Y0_1 3.327290 1_555
Se0_0 Y0_7 3.327290 1_444
Se0_0 Y0_2 3.327290 1_545
Se0_0 Y0_4 3.327290 1_455
Se0_0 Se0_3 3.852344 1_555
Se0_0 Se0_5 3.852344 1_454
Se0_0 Se0_5 3.852344 1_555
Se0_0 Se0_3 3.852344 1_544
Se0_1 Y1_6 3.327290 1_445
Se0_1 Y1_3 3.327290 1_545
Se0_1 Y1_0 3.327290 1_556
Se0_1 Y1_5 3.327290 1_455
Se0_1 Y0_5 3.327290 1_455
Se0_1 Y0_3 3.327290 1_545
Se0_1 Y0_0 3.327290 1_556
Se0_1 Y0_6 3.327290 1_445
Se0_1 Se0_2 3.852344 1_545
Se0_1 Se0_4 3.852344 1_556
Se0_1 Se0_2 3.852344 1_556
Se0_1 Se0_4 3.852344 1_455
Se0_2 Y1_6 3.327290 1_455
Se0_2 Y1_5 3.327290 1_454
Se0_2 Y1_0 3.327290 1_555
Se0_2 Y1_3 3.327290 1_555
Se0_2 Y0_5 3.327290 1_454
Se0_2 Y0_0 3.327290 1_555
Se0_2 Y0_3 3.327290 1_555
Se0_2 Y0_6 3.327290 1_455
Se0_2 Se0_7 3.852344 1_555
Se0_2 Se0_7 3.852344 1_454
Se0_3 Y1_1 3.327290 1_555
Se0_3 Y1_2 3.327290 1_556
Se0_3 Y1_4 3.327290 1_455
Se0_3 Y1_7 3.327290 1_455
Se0_3 Y0_1 3.327290 1_555
Se0_3 Y0_7 3.327290 1_455
Se0_3 Y0_4 3.327290 1_455
Se0_3 Y0_2 3.327290 1_556
Se0_3 Se0_6 3.852344 1_556
Se0_3 Se0_6 3.852344 1_455
Se0_4 Y1_3 3.327290 1_544
Se0_4 Y1_0 3.327290 1_555
Se0_4 Y1_6 3.327290 1_545
Se0_4 Y1_5 3.327290 1_555
Se0_4 Y0_5 3.327290 1_555
Se0_4 Y0_0 3.327290 1_555
Se0_4 Y0_6 3.327290 1_545
Se0_4 Y0_3 3.327290 1_544
Se0_4 Se0_7 3.852344 1_555
Se0_4 Se0_7 3.852344 1_544
Se0_5 Y1_1 3.327290 1_555
Se0_5 Y1_7 3.327290 1_545
Se0_5 Y1_2 3.327290 1_545
Se0_5 Y1_4 3.327290 1_556
Se0_5 Y0_1 3.327290 1_555
Se0_5 Y0_7 3.327290 1_545
Se0_5 Y0_2 3.327290 1_545
Se0_5 Y0_4 3.327290 1_556
Se0_5 Se0_6 3.852344 1_545
Se0_5 Se0_6 3.852344 1_556
Se0_6 Y1_2 3.327290 1_555
Se0_6 Y1_1 3.327290 1_554
Se0_6 Y1_4 3.327290 1_555
Se0_6 Y1_7 3.327290 1_555
Se0_6 Y0_2 3.327290 1_555
Se0_6 Y0_1 3.327290 1_554
Se0_6 Y0_7 3.327290 1_555
Se0_6 Y0_4 3.327290 1_555
Se0_7 Y1_3 3.327290 1_555
Se0_7 Y1_5 3.327290 1_555
Se0_7 Y1_0 3.327290 1_555
Se0_7 Y1_6 3.327290 1_556
Se0_7 Y0_3 3.327290 1_555
Se0_7 Y0_5 3.327290 1_555
Se0_7 Y0_6 3.327290 1_556
Se0_7 Y0_0 3.327290 1_555
O0_0 Y0_0 2.236001 1_555
O0_0 Y0_5 2.236001 1_555
O0_0 Y1_1 2.236001 1_555
O0_0 Y1_2 2.236001 1_545
O0_0 O1_0 2.724019 1_555
O0_0 O1_3 2.724019 1_544
O0_0 O1_5 2.724019 1_555
O0_0 O1_6 2.724019 1_545
O0_0 Se0_0 3.604124 1_555
O0_0 Se0_5 3.604124 1_555
O0_0 Se0_7 3.604124 1_555
O0_0 Se0_4 3.604124 1_555
O0_1 Y0_4 2.236001 1_556
O0_1 Y0_1 2.236001 1_555
O0_1 Y1_0 2.236001 1_556
O0_1 Y1_3 2.236001 1_545
O0_1 O1_1 2.724019 1_555
O0_1 O1_2 2.724019 1_545
O0_1 O1_4 2.724019 1_556
O0_1 O1_7 2.724019 1_545
O0_1 Se0_6 3.604124 1_556
O0_1 Se0_1 3.604124 1_555
O0_1 Se0_4 3.604124 1_556
O0_1 Se0_5 3.604124 1_555
O0_2 Y0_2 2.236001 1_555
O0_2 Y0_7 2.236001 1_555
O0_2 Y1_3 2.236001 1_555
O0_2 Y1_0 2.236001 1_555
O0_2 O1_2 2.724019 1_555
O0_2 O1_4 2.724019 1_555
O0_2 O1_7 2.724019 1_555
O0_2 O1_1 2.724019 1_554
O0_2 Se0_6 3.604124 1_555
O0_2 Se0_5 3.604124 1_565
O0_2 Se0_7 3.604124 1_555
O0_2 Se0_2 3.604124 1_555
O0_3 Y0_6 2.236001 1_556
O0_3 Y0_3 2.236001 1_555
O0_3 Y1_1 2.236001 1_555
O0_3 Y1_2 2.236001 1_556
O0_3 O1_5 2.724019 1_555
O0_3 O1_3 2.724019 1_555
O0_3 O1_0 2.724019 1_555
O0_3 O1_6 2.724019 1_556
O0_3 Se0_3 3.604124 1_555
O0_3 Se0_6 3.604124 1_556
O0_3 Se0_7 3.604124 1_555
O0_3 Se0_4 3.604124 1_566
O0_4 Y0_4 2.236001 1_555
O0_4 Y0_1 2.236001 1_655
O0_4 Y1_5 2.236001 1_555
O0_4 Y1_6 2.236001 1_545
O0_4 O1_4 2.724019 1_555
O0_4 O1_1 2.724019 1_655
O0_4 O1_7 2.724019 1_544
O0_4 O1_2 2.724019 1_645
O0_4 Se0_4 3.604124 1_555
O0_4 Se0_3 3.604124 1_655
O0_4 Se0_1 3.604124 1_655
O0_4 Se0_0 3.604124 1_655
O0_5 Y0_0 2.236001 1_656
O0_5 Y0_5 2.236001 1_555
O0_5 Y1_7 2.236001 1_545
O0_5 Y1_4 2.236001 1_556
O0_5 O1_5 2.724019 1_555
O0_5 O1_0 2.724019 1_656
O0_5 O1_6 2.724019 1_545
O0_5 O1_3 2.724019 1_645
O0_5 Se0_2 3.604124 1_656
O0_5 Se0_5 3.604124 1_555
O0_5 Se0_1 3.604124 1_655
O0_5 Se0_0 3.604124 1_656
O0_6 Y0_6 2.236001 1_555
O0_6 Y0_3 2.236001 1_655
O0_6 Y1_7 2.236001 1_555
O0_6 Y1_4 2.236001 1_555
O0_6 O1_6 2.724019 1_555
O0_6 O1_3 2.724019 1_655
O0_6 O1_5 2.724019 1_554
O0_6 O1_0 2.724019 1_655
O0_6 Se0_6 3.604124 1_555
O0_6 Se0_3 3.604124 1_655
O0_6 Se0_1 3.604124 1_665
O0_6 Se0_2 3.604124 1_655
O0_7 Y0_2 2.236001 1_656
O0_7 Y0_7 2.236001 1_555
O0_7 Y1_6 2.236001 1_556
O0_7 Y1_5 2.236001 1_555
O0_7 O1_7 2.724019 1_555
O0_7 O1_2 2.724019 1_656
O0_7 O1_4 2.724019 1_555
O0_7 O1_1 2.724019 1_655
O0_7 Se0_3 3.604124 1_655
O0_7 Se0_0 3.604124 1_666
O0_7 Se0_2 3.604124 1_656
O0_7 Se0_7 3.604124 1_555
O1_0 Y0_3 2.236001 1_555
O1_0 Y0_0 2.236001 1_555
O1_0 Y1_1 2.236001 1_555
O1_0 Y1_4 2.236001 1_455
O1_0 Se0_0 3.604124 1_555
O1_0 Se0_3 3.604124 1_555
O1_0 Se0_7 3.604124 1_555
O1_0 Se0_2 3.604124 1_555
O1_1 Y0_2 2.236001 1_556
O1_1 Y0_1 2.236001 1_555
O1_1 Y1_0 2.236001 1_556
O1_1 Y1_5 2.236001 1_455
O1_1 Se0_6 3.604124 1_556
O1_1 Se0_1 3.604124 1_555
O1_1 Se0_3 3.604124 1_555
O1_1 Se0_2 3.604124 1_556
O1_2 Y0_2 2.236001 1_555
O1_2 Y0_1 2.236001 1_565
O1_2 Y1_3 2.236001 1_555
O1_2 Y1_6 2.236001 1_455
O1_2 Se0_1 3.604124 1_565
O1_2 Se0_2 3.604124 1_555
O1_2 Se0_0 3.604124 1_565
O1_2 Se0_5 3.604124 1_565
O1_3 Y0_3 2.236001 1_555
O1_3 Y0_0 2.236001 1_566
O1_3 Y1_2 2.236001 1_556
O1_3 Y1_7 2.236001 1_455
O1_3 Se0_3 3.604124 1_555
O1_3 Se0_0 3.604124 1_566
O1_3 Se0_4 3.604124 1_566
O1_3 Se0_1 3.604124 1_565
O1_4 Y0_4 2.236001 1_555
O1_4 Y0_7 2.236001 1_555
O1_4 Y1_0 2.236001 1_555
O1_4 Y1_5 2.236001 1_555
O1_4 Se0_6 3.604124 1_555
O1_4 Se0_3 3.604124 1_655
O1_4 Se0_4 3.604124 1_555
O1_4 Se0_7 3.604124 1_555
O1_5 Y0_6 2.236001 1_556
O1_5 Y0_5 2.236001 1_555
O1_5 Y1_4 2.236001 1_556
O1_5 Y1_1 2.236001 1_555
O1_5 Se0_5 3.604124 1_555
O1_5 Se0_2 3.604124 1_656
O1_5 Se0_7 3.604124 1_555
O1_5 Se0_6 3.604124 1_556
O1_6 Y0_6 2.236001 1_555
O1_6 Y0_5 2.236001 1_565
O1_6 Y1_7 2.236001 1_555
O1_6 Y1_2 2.236001 1_555
O1_6 Se0_5 3.604124 1_565
O1_6 Se0_6 3.604124 1_555
O1_6 Se0_4 3.604124 1_565
O1_6 Se0_1 3.604124 1_665
O1_7 Y0_4 2.236001 1_566
O1_7 Y0_7 2.236001 1_555
O1_7 Y1_6 2.236001 1_556
O1_7 Y1_3 2.236001 1_555
O1_7 Se0_7 3.604124 1_555
O1_7 Se0_4 3.604124 1_566
O1_7 Se0_0 3.604124 1_666
O1_7 Se0_5 3.604124 1_565
