# generated using pymatgen
data_Li3P2WO8
_symmetry_space_group_name_H-M   'P 1'
_cell_length_a   18.53454500
_cell_length_b   5.06252000
_cell_length_c   7.98795583
_cell_angle_alpha   52.75189803
_cell_angle_beta   90.00000000
_cell_angle_gamma   90.00000000
_symmetry_Int_Tables_number   1
_chemical_formula_structural   Li3P2WO8
_chemical_formula_sum   'Li12 P8 W4 O32'
_cell_volume   596.63597398
_cell_formula_units_Z   4
loop_
 _symmetry_equiv_pos_site_id
 _symmetry_equiv_pos_as_xyz
  1  'x, y, z'
loop_
 _atom_site_type_symbol
 _atom_site_label
 _atom_site_symmetry_multiplicity
 _atom_site_fract_x
 _atom_site_fract_y
 _atom_site_fract_z
 _atom_site_occupancy
  Li  Li0  1  0.70114700  0.38372000  0.81141200  1
  Li  Li1  1  0.88027900  0.72005000  0.50270400  1
  Li  Li2  1  0.04975600  0.97794800  0.28929000  1
  Li  Li3  1  0.38027900  0.27995000  0.99729600  1
  Li  Li4  1  0.54975600  0.02205200  0.21071000  1
  Li  Li5  1  0.20114700  0.61628000  0.68858800  1
  Li  Li6  1  0.79885300  0.38372000  0.31141200  1
  Li  Li7  1  0.45024400  0.97794800  0.78929000  1
  Li  Li8  1  0.61972100  0.72005000  0.00270400  1
  Li  Li9  1  0.95024400  0.02205200  0.71071000  1
  Li  Li10  1  0.11972100  0.27995000  0.49729600  1
  Li  Li11  1  0.29885300  0.61628000  0.18858800  1
  P  P0  1  0.71487100  0.88911300  0.29123800  1
  P  P1  1  0.53498500  0.48809700  0.73140100  1
  P  P2  1  0.03498500  0.51190300  0.76859900  1
  P  P3  1  0.21487100  0.11088700  0.20876200  1
  P  P4  1  0.78512900  0.88911300  0.79123800  1
  P  P5  1  0.96501500  0.48809700  0.23140100  1
  P  P6  1  0.46501500  0.51190300  0.26859900  1
  P  P7  1  0.28512900  0.11088700  0.70876200  1
  W  W0  1  0.87369900  0.18175900  0.01682400  1
  W  W1  1  0.37369900  0.81824100  0.48317600  1
  W  W2  1  0.62630100  0.18175900  0.51682400  1
  W  W3  1  0.12630100  0.81824100  0.98317600  1
  O  O0  1  0.20146800  0.82560300  0.18873200  1
  O  O1  1  0.69048500  0.55324300  0.49892400  1
  O  O2  1  0.44392500  0.81955900  0.26271100  1
  O  O3  1  0.67463800  0.96062300  0.10074000  1
  O  O4  1  0.06242100  0.18595400  0.97571200  1
  O  O5  1  0.06642500  0.55431300  0.57721600  1
  O  O6  1  0.79854900  0.84634300  0.27484800  1
  O  O7  1  0.45000800  0.48284000  0.73705200  1
  O  O8  1  0.95000800  0.51716000  0.76294800  1
  O  O9  1  0.29854900  0.15365700  0.22515200  1
  O  O10  1  0.56642500  0.44568700  0.92278400  1
  O  O11  1  0.56242100  0.81404600  0.52428800  1
  O  O12  1  0.17463800  0.03937700  0.39926000  1
  O  O13  1  0.94392500  0.18044100  0.23728900  1
  O  O14  1  0.19048500  0.44675700  0.00107600  1
  O  O15  1  0.70146800  0.17439700  0.31126800  1
  O  O16  1  0.29853200  0.82560300  0.68873200  1
  O  O17  1  0.80951500  0.55324300  0.99892400  1
  O  O18  1  0.05607500  0.81955900  0.76271100  1
  O  O19  1  0.82536200  0.96062300  0.60074000  1
  O  O20  1  0.43757900  0.18595400  0.47571200  1
  O  O21  1  0.43357500  0.55431300  0.07721600  1
  O  O22  1  0.70145100  0.84634300  0.77484800  1
  O  O23  1  0.04999200  0.48284000  0.23705200  1
  O  O24  1  0.54999200  0.51716000  0.26294800  1
  O  O25  1  0.20145100  0.15365700  0.72515200  1
  O  O26  1  0.93357500  0.44568700  0.42278400  1
  O  O27  1  0.93757900  0.81404600  0.02428800  1
  O  O28  1  0.32536200  0.03937700  0.89926000  1
  O  O29  1  0.55607500  0.18044100  0.73728900  1
  O  O30  1  0.30951500  0.44675700  0.50107600  1
  O  O31  1  0.79853200  0.17439700  0.81126800  1
loop_
_geom_bond_atom_site_label_1
_geom_bond_atom_site_label_2
_geom_bond_distance
_geom_bond_site_symmetry_2
Li0 O3 2.044049 1_546
Li0 O31 2.093423 1_555
Li0 O1 2.100729 1_555
Li0 O22 2.177710 1_555
Li0 O10 2.731807 1_555
Li1 O19 2.070542 1_555
Li1 O26 2.094269 1_555
Li1 O8 2.112347 1_555
Li1 O6 2.146523 1_555
Li1 O13 2.310202 1_565
Li1 O31 2.785578 1_555
Li2 O5 2.003415 1_555
Li2 O4 2.060395 1_564
Li2 O13 2.134374 1_465
Li2 O23 2.327293 1_565
Li2 O12 2.560581 1_565
Li2 O23 2.778983 1_555
Li3 O28 2.070542 1_555
Li3 O21 2.094269 1_556
Li3 O7 2.112347 1_555
Li3 O9 2.146523 1_556
Li3 O2 2.310202 1_546
Li3 O16 2.785578 1_555
Li4 O10 2.003415 1_554
Li4 O11 2.060395 1_545
Li4 O2 2.134374 1_545
Li4 O24 2.327293 1_545
Li4 O3 2.560581 1_545
Li4 O24 2.778983 1_555
Li5 O12 2.044049 1_565
Li5 O16 2.093423 1_555
Li5 O14 2.100729 1_556
Li5 O25 2.177710 1_555
Li5 O5 2.731807 1_555
Li6 O19 2.044049 1_545
Li6 O15 2.093423 1_555
Li6 O17 2.100729 1_554
Li6 O6 2.177710 1_555
Li6 O26 2.731807 1_555
Li7 O21 2.003415 1_556
Li7 O20 2.060395 1_565
Li7 O29 2.134374 1_565
Li7 O7 2.327293 1_565
Li7 O28 2.560581 1_565
Li7 O7 2.778983 1_555
Li8 O3 2.070542 1_555
Li8 O10 2.094269 1_554
Li8 O24 2.112347 1_555
Li8 O22 2.146523 1_554
Li8 O29 2.310202 1_564
Li8 O15 2.785578 1_555
Li9 O26 2.003415 1_555
Li9 O27 2.060395 1_546
Li9 O18 2.134374 1_645
Li9 O8 2.327293 1_545
Li9 O19 2.560581 1_545
Li9 O8 2.778983 1_555
Li10 O12 2.070542 1_555
Li10 O5 2.094269 1_555
Li10 O23 2.112347 1_555
Li10 O25 2.146523 1_555
Li10 O18 2.310202 1_545
Li10 O0 2.785578 1_555
Li11 O28 2.044049 1_564
Li11 O0 2.093423 1_555
Li11 O30 2.100729 1_555
Li11 O9 2.177710 1_555
Li11 O21 2.731807 1_555
O0 P3 1.566179 1_565
O0 W3 2.170832 1_554
O1 P0 1.559797 1_555
O1 W2 2.155679 1_555
O2 P6 1.578665 1_555
O2 W1 2.186630 1_555
O3 P0 1.528334 1_555
O4 P2 1.553650 1_555
O4 W3 2.176329 1_545
O5 P2 1.524939 1_555
O6 P0 1.582319 1_555
O6 W0 2.198834 1_565
O7 P1 1.575420 1_555
O7 W1 2.197209 1_555
O8 P2 1.575420 1_655
O8 W0 2.197209 1_556
O9 P3 1.582319 1_555
O9 W1 2.198834 1_545
O10 P1 1.524939 1_555
O11 P1 1.553650 1_555
O11 W2 2.176329 1_565
O12 P3 1.528334 1_555
O13 P5 1.578665 1_555
O13 W0 2.186630 1_555
O14 P3 1.559797 1_555
O14 W3 2.155679 1_554
O15 P0 1.566179 1_545
O15 W2 2.170832 1_555
O16 P7 1.566179 1_565
O16 W1 2.170832 1_555
O17 P4 1.559797 1_555
O17 W0 2.155679 1_556
O18 P2 1.578665 1_555
O18 W3 2.186630 1_555
O19 P4 1.528334 1_555
O20 P6 1.553650 1_555
O20 W1 2.176329 1_545
O21 P6 1.524939 1_555
O22 P4 1.582319 1_555
O22 W2 2.198834 1_565
O23 P5 1.575420 1_455
O23 W3 2.197209 1_554
O24 P6 1.575420 1_555
O24 W2 2.197209 1_555
O25 P7 1.582319 1_555
O25 W3 2.198834 1_545
O26 P5 1.524939 1_555
O27 P5 1.553650 1_555
O27 W0 2.176329 1_565
O28 P7 1.528334 1_555
O29 P1 1.578665 1_555
O29 W2 2.186630 1_555
O30 P7 1.559797 1_555
O30 W1 2.155679 1_555
O31 P4 1.566179 1_545
O31 W0 2.170832 1_556
