# generated using pymatgen
data_Li4Fe2Co3Sn3O16
_symmetry_space_group_name_H-M   'P 1'
_cell_length_a   5.99788477
_cell_length_b   6.03055410
_cell_length_c   9.62479821
_cell_angle_alpha   90.22281582
_cell_angle_beta   89.12761380
_cell_angle_gamma   120.39129014
_symmetry_Int_Tables_number   1
_chemical_formula_structural   Li4Fe2Co3Sn3O16
_chemical_formula_sum   'Li4 Fe2 Co3 Sn3 O16'
_cell_volume   300.25973181
_cell_formula_units_Z   1
loop_
 _symmetry_equiv_pos_site_id
 _symmetry_equiv_pos_as_xyz
  1  'x, y, z'
loop_
 _atom_site_type_symbol
 _atom_site_label
 _atom_site_symmetry_multiplicity
 _atom_site_fract_x
 _atom_site_fract_y
 _atom_site_fract_z
 _atom_site_occupancy
  Li  Li0  1  0.35206300  0.67444700  0.88484100  1
  Li  Li1  1  0.95786900  0.97844400  0.99200100  1
  Li  Li2  1  0.97288800  0.98450200  0.50265200  1
  Li  Li3  1  0.67559900  0.33731800  0.39788600  1
  Fe  Fe0  1  0.33854500  0.67386500  0.49670300  1
  Fe  Fe1  1  0.67917300  0.34193400  0.98870400  1
  Co  Co0  1  0.65981500  0.83011900  0.21578200  1
  Co  Co1  1  0.83142400  0.65932600  0.71420800  1
  Co  Co2  1  0.83096200  0.16960100  0.71269900  1
  Sn  Sn0  1  0.17091200  0.83123500  0.21506400  1
  Sn  Sn1  1  0.17074100  0.33945500  0.21405800  1
  Sn  Sn2  1  0.33929400  0.17013200  0.71491100  1
  O  O0  1  0.15464400  0.83179900  0.59758400  1
  O  O1  1  0.03674500  0.51839900  0.34844300  1
  O  O2  1  0.35447100  0.67710000  0.09983900  1
  O  O3  1  0.97829900  0.98977300  0.31579500  1
  O  O4  1  0.97730700  0.99001000  0.80692400  1
  O  O5  1  0.14515400  0.32055400  0.59982000  1
  O  O6  1  0.49578900  0.96436400  0.33981800  1
  O  O7  1  0.49494500  0.53089100  0.34018600  1
  O  O8  1  0.32113700  0.15897500  0.08652900  1
  O  O9  1  0.67171900  0.84184300  0.61255300  1
  O  O10  1  0.53684300  0.49345400  0.83942700  1
  O  O11  1  0.54348900  0.04297300  0.83690400  1
  O  O12  1  0.68928600  0.34303800  0.60906100  1
  O  O13  1  0.82985100  0.67112800  0.10006900  1
  O  O14  1  0.96234500  0.47801800  0.82541600  1
  O  O15  1  0.82869300  0.15760300  0.09995900  1
loop_
_geom_bond_atom_site_label_1
_geom_bond_atom_site_label_2
_geom_bond_distance
_geom_bond_site_symmetry_2
Li0 O10 1.953512 1_555
Li0 O11 1.969850 1_565
Li0 O2 2.069526 1_556
Li0 O14 2.104283 1_455
Li1 O4 1.782696 1_555
Li1 O13 1.912321 1_556
Li1 O15 1.913379 1_566
Li1 O8 2.100696 1_666
Li2 O3 1.798374 1_555
Li2 O9 1.870434 1_555
Li2 O0 1.980893 1_655
Li2 O5 1.986271 1_665
Li3 O1 1.921015 1_655
Li3 O6 2.021962 1_545
Li3 O12 2.034877 1_555
Li3 O7 2.036753 1_555
Fe0 O0 2.022294 1_555
Fe0 O9 2.067288 1_555
Fe0 O5 2.085898 1_555
Fe0 O1 2.131440 1_555
Fe0 O6 2.131681 1_555
Fe0 O7 2.158237 1_555
Fe1 O13 2.025929 1_556
Fe1 O15 2.057608 1_556
Fe1 O8 2.065093 1_556
Fe1 O10 2.113009 1_555
Fe1 O14 2.132273 1_555
Fe1 O11 2.139758 1_555
Co0 O3 1.921061 1_555
Co0 O2 1.948124 1_555
Co0 O6 1.952199 1_555
Co0 O7 1.960372 1_555
Co0 O15 2.031672 1_565
Co0 O13 2.036238 1_555
Co1 O10 1.931633 1_555
Co1 O12 1.937805 1_555
Co1 O4 1.945052 1_555
Co1 O14 1.964990 1_555
Co1 O0 2.000681 1_655
Co1 O9 2.046956 1_555
Co2 O11 1.896658 1_555
Co2 O12 1.935001 1_555
Co2 O4 1.938977 1_545
Co2 O5 1.941631 1_655
Co2 O14 1.945414 1_555
Co2 O9 1.962448 1_545
O0 Sn2 2.097271 1_565
O1 Sn0 2.075099 1_555
O1 Sn1 2.078081 1_555
O2 Sn1 2.068610 1_555
O2 Sn0 2.072753 1_555
O3 Sn1 2.063229 1_665
O3 Sn0 2.065171 1_655
O4 Sn2 2.059327 1_665
O5 Sn2 2.126426 1_555
O6 Sn0 2.089052 1_555
O7 Sn1 2.092197 1_555
O8 Sn0 2.105209 1_545
O8 Sn1 2.110498 1_555
O10 Sn2 2.080736 1_555
O11 Sn2 2.113700 1_555
O12 Sn2 2.064046 1_555
O13 Sn0 2.098597 1_655
O15 Sn1 2.097710 1_655
