# generated using pymatgen
data_Li2MnF6
_symmetry_space_group_name_H-M   'P 1'
_cell_length_a   8.32201770
_cell_length_b   8.32201380
_cell_length_c   4.52486190
_cell_angle_alpha   89.99972398
_cell_angle_beta   90.00046609
_cell_angle_gamma   119.99947069
_symmetry_Int_Tables_number   1
_chemical_formula_structural   Li2MnF6
_chemical_formula_sum   'Li6 Mn3 F18'
_cell_volume   271.39093907
_cell_formula_units_Z   3
loop_
 _symmetry_equiv_pos_site_id
 _symmetry_equiv_pos_as_xyz
  1  'x, y, z'
loop_
 _atom_site_type_symbol
 _atom_site_label
 _atom_site_symmetry_multiplicity
 _atom_site_fract_x
 _atom_site_fract_y
 _atom_site_fract_z
 _atom_site_occupancy
  Li  Li0  1  0.00001311  0.63711317  0.00000579  1
  Li  Li1  1  0.00007243  0.30194468  0.49996153  1
  Li  Li2  1  0.36287863  0.36287993  0.99999998  1
  Li  Li3  1  0.30187679  0.99994557  0.49994930  1
  Li  Li4  1  0.69810281  0.69815477  0.49995865  1
  Li  Li5  1  0.63712419  0.00001874  0.99999664  1
  Mn  Mn0  1  0.33331990  0.66668170  0.50896002  1
  Mn  Mn1  1  -0.00000904  -0.00000654  -0.00000349  1
  Mn  Mn2  1  0.66668674  0.33332566  0.49106903  1
  F  F0  1  0.09816433  0.89007187  0.77595493  1
  F  F1  1  0.22274611  0.76426930  0.28357517  1
  F  F2  1  0.12602598  0.54953861  0.73485439  1
  F  F3  1  0.42350933  0.87396543  0.73486166  1
  F  F4  1  0.23572300  0.45847543  0.28356643  1
  F  F5  1  0.10992848  0.20809488  0.77595869  1
  F  F6  1  0.20809809  0.10992774  0.22404059  1
  F  F7  1  0.45045891  0.57647814  0.73486452  1
  F  F8  1  0.54151295  0.77724201  0.28356245  1
  F  F9  1  0.45846304  0.23571399  0.71644549  1
  F  F10  1  0.57646541  0.45045409  0.26516131  1
  F  F11  1  0.79190891  0.90183476  0.77595392  1
  F  F12  1  0.54953885  0.12601321  0.26516976  1
  F  F13  1  0.77724344  0.54152126  0.71644763  1
  F  F14  1  0.90182776  0.79190647  0.22404157  1
  F  F15  1  0.76427563  0.22274649  0.71643580  1
  F  F16  1  0.87396968  0.42351943  0.26516875  1
  F  F17  1  0.89007456  0.09817119  0.22403850  1
loop_
_geom_bond_atom_site_label_1
_geom_bond_atom_site_label_2
_geom_bond_distance
_geom_bond_site_symmetry_2
F0 Mn1 1.810904 1_566
F0 Li3 1.928665 1_555
F0 Li0 2.099298 1_556
F1 Mn0 1.814843 1_555
F1 Li3 1.986802 1_555
F1 Li0 2.059245 1_555
F2 Mn0 1.813676 1_555
F2 Li0 1.958220 1_556
F2 Li1 2.077068 1_555
F3 Mn0 1.813605 1_555
F3 Li5 1.958346 1_565
F3 Li3 2.077211 1_555
F4 Mn0 1.815152 1_555
F4 Li1 1.986697 1_555
F4 Li2 2.059337 1_554
F5 Mn1 1.810939 1_556
F5 Li1 1.928577 1_555
F5 Li2 2.099207 1_555
F6 Mn1 1.810983 1_555
F6 Li3 1.928648 1_545
F6 Li2 2.099218 1_554
F7 Mn0 1.813953 1_555
F7 Li2 1.958236 1_555
F7 Li4 2.077412 1_555
F8 Mn0 1.815079 1_555
F8 Li4 1.986899 1_555
F8 Li5 2.059476 1_564
F9 Mn2 1.815216 1_555
F9 Li3 1.987638 1_545
F9 Li2 2.059303 1_555
F10 Mn2 1.813997 1_555
F10 Li2 1.958239 1_554
F10 Li4 2.077512 1_555
F11 Mn1 1.810829 1_666
F11 Li4 1.928455 1_555
F11 Li5 2.099315 1_565
F12 Mn2 1.813790 1_555
F12 Li5 1.958226 1_554
F12 Li3 2.077239 1_545
F13 Mn2 1.815039 1_555
F13 Li4 1.987698 1_555
F13 Li0 2.059419 1_656
F14 Mn1 1.810869 1_665
F14 Li4 1.928500 1_555
F14 Li0 2.099365 1_655
F15 Mn2 1.814837 1_555
F15 Li1 1.987764 1_655
F15 Li5 2.059196 1_555
F16 Mn2 1.813600 1_555
F16 Li0 1.958309 1_655
F16 Li1 2.077342 1_655
F17 Mn1 1.810899 1_655
F17 Li1 1.928779 1_655
F17 Li5 2.099217 1_554
