# generated using pymatgen
data_Ta2O5
_symmetry_space_group_name_H-M   'P 1'
_cell_length_a   6.99870501
_cell_length_b   7.46400943
_cell_length_c   7.23272094
_cell_angle_alpha   58.30163246
_cell_angle_beta   61.07200147
_cell_angle_gamma   62.04199686
_symmetry_Int_Tables_number   1
_chemical_formula_structural   Ta2O5
_chemical_formula_sum   'Ta6 O15'
_cell_volume   269.41125160
_cell_formula_units_Z   3
loop_
 _symmetry_equiv_pos_site_id
 _symmetry_equiv_pos_as_xyz
  1  'x, y, z'
loop_
 _atom_site_type_symbol
 _atom_site_label
 _atom_site_symmetry_multiplicity
 _atom_site_fract_x
 _atom_site_fract_y
 _atom_site_fract_z
 _atom_site_occupancy
  Ta  Ta0  1  0.24942398  0.98481918  0.01606775  1
  Ta  Ta1  1  0.23945347  0.02516640  0.52367786  1
  Ta  Ta2  1  0.77725205  0.98497125  0.01586287  1
  Ta  Ta3  1  0.28667369  0.47234404  0.98133365  1
  Ta  Ta4  1  0.71932569  0.57177829  0.01697947  1
  Ta  Ta5  1  0.78352328  0.97849452  0.48190028  1
  O  O0  1  0.06552828  0.07956646  0.81691771  1
  O  O1  1  0.19514640  0.32145480  0.31577156  1
  O  O2  1  0.39583969  0.64986082  0.04789545  1
  O  O3  1  0.15586556  0.96481052  0.33445235  1
  O  O4  1  0.46243567  0.03054151  0.67073698  1
  O  O5  1  0.31319114  0.70631622  0.69466152  1
  O  O6  1  0.20883711  0.28852985  0.93109500  1
  O  O7  1  0.55539447  0.86341516  0.05336812  1
  O  O8  1  0.74836413  0.28508480  0.24565318  1
  O  O9  1  0.57255921  0.96476331  0.33451072  1
  O  O10  1  0.86381947  0.03051480  0.67074573  1
  O  O11  1  0.59867322  0.28843146  0.93113202  1
  O  O12  1  0.93384212  0.64984542  0.04795968  1
  O  O13  1  0.83440938  0.65843760  0.70026775  1
  O  O14  1  0.96814299  0.88015357  0.21110933  1
loop_
_geom_bond_atom_site_label_1
_geom_bond_atom_site_label_2
_geom_bond_distance
_geom_bond_site_symmetry_2
O0 Ta1 2.022096 1_555
O0 Ta2 2.024614 1_446
O0 Ta0 2.025053 1_546
O0 O14 2.328155 1_446
O0 O10 2.362184 1_455
O0 O4 2.362273 1_555
O0 O6 2.782495 1_555
O0 O11 2.784713 1_455
O1 Ta1 1.887176 1_555
O1 Ta3 1.960704 1_554
O1 O12 2.709033 1_455
O1 O2 2.709225 1_555
O1 O3 2.729898 1_545
O1 O9 2.730705 1_545
O2 Ta4 1.981235 1_555
O2 Ta3 2.132243 1_554
O2 Ta0 2.138900 1_555
O2 O7 2.359515 1_555
O2 O5 2.666294 1_554
O2 O4 2.756522 1_564
O3 Ta0 2.006351 1_555
O3 Ta1 2.021856 1_565
O3 Ta5 2.261615 1_455
O3 O7 2.580260 1_555
O3 O6 2.621543 1_564
O3 O5 2.687606 1_555
O4 Ta5 1.958578 1_545
O4 Ta0 2.134575 1_546
O4 Ta1 2.297332 1_555
O4 O9 2.415693 1_545
O4 O7 2.644079 1_546
O5 Ta3 1.873421 1_555
O5 Ta1 1.957669 1_565
O5 O9 2.688858 1_555
O6 Ta0 1.923081 1_546
O6 Ta3 1.930633 1_555
O7 Ta0 1.990481 1_555
O7 Ta2 1.990606 1_555
O7 Ta4 2.022914 1_555
O7 O9 2.580604 1_555
O8 Ta4 1.885192 1_555
O8 Ta5 1.996633 1_545
O9 Ta2 2.007447 1_555
O9 Ta1 2.021674 1_565
O9 Ta5 2.259710 1_555
O10 Ta5 1.958738 1_545
O10 Ta2 2.133466 1_546
O10 Ta1 2.298988 1_655
O10 O3 2.416300 1_645
O10 O7 2.644171 1_546
O10 O12 2.756483 1_546
O11 Ta2 1.922460 1_546
O11 Ta3 1.931448 1_555
O11 O9 2.621610 1_546
O11 O2 2.765800 1_556
O12 Ta4 1.981586 1_555
O12 Ta3 2.130118 1_654
O12 Ta2 2.139472 1_555
O12 O7 2.358886 1_555
O12 O5 2.666504 1_654
O12 O14 2.682873 1_555
O12 O6 2.765253 1_654
O13 Ta4 1.860343 1_556
O13 Ta5 2.027207 1_555
O14 Ta0 2.018172 1_655
O14 Ta2 2.018719 1_555
O14 Ta5 2.053664 1_555
O14 O9 2.328699 1_555
O14 O3 2.329359 1_655
O14 O2 2.682853 1_655
O14 O8 2.761527 1_565
