# generated using pymatgen
data_Fe21O23
_symmetry_space_group_name_H-M   'P 1'
_cell_length_a   6.89823300
_cell_length_b   8.11798556
_cell_length_c   9.75420340
_cell_angle_alpha   83.08563392
_cell_angle_beta   73.55589043
_cell_angle_gamma   64.97870668
_symmetry_Int_Tables_number   1
_chemical_formula_structural   Fe21O23
_chemical_formula_sum   'Fe21 O23'
_cell_volume   474.72320235
_cell_formula_units_Z   1
loop_
 _symmetry_equiv_pos_site_id
 _symmetry_equiv_pos_as_xyz
  1  'x, y, z'
loop_
 _atom_site_type_symbol
 _atom_site_label
 _atom_site_symmetry_multiplicity
 _atom_site_fract_x
 _atom_site_fract_y
 _atom_site_fract_z
 _atom_site_occupancy
  Fe  Fe0  1  0.12757000  0.29782500  0.03995100  1
  Fe  Fe1  1  0.25728100  0.61827200  0.08110300  1
  Fe  Fe2  1  0.37572400  0.91730400  0.12963900  1
  Fe  Fe3  1  0.52648500  0.21860300  0.17548100  1
  Fe  Fe4  1  0.64168300  0.52254800  0.22606600  1
  Fe  Fe5  1  0.79019200  0.82737400  0.24871600  1
  Fe  Fe6  1  0.90718900  0.13004200  0.29663700  1
  Fe  Fe7  1  0.05649400  0.42920400  0.35335400  1
  Fe  Fe8  1  0.18078900  0.73077700  0.39611400  1
  Fe  Fe9  1  0.31183300  0.04630700  0.43491600  1
  Fe  Fe10  1  0.56480000  0.64603300  0.52041800  1
  Fe  Fe11  1  0.68886100  0.96619900  0.56068800  1
  Fe  Fe12  1  0.81057500  0.26361900  0.60340000  1
  Fe  Fe13  1  0.96245300  0.55782100  0.65051200  1
  Fe  Fe14  1  0.08919000  0.87335700  0.70370400  1
  Fe  Fe15  1  0.21767000  0.17659500  0.73751800  1
  Fe  Fe16  1  0.34976500  0.47202300  0.77663400  1
  Fe  Fe17  1  0.46945000  0.78483200  0.82892300  1
  Fe  Fe18  1  0.61554500  0.08681000  0.87406500  1
  Fe  Fe19  1  0.74785200  0.38330700  0.91533100  1
  Fe  Fe20  1  0.87300600  0.69988800  0.95931300  1
  O  O0  1  0.57156600  0.64811200  0.02084900  1
  O  O1  1  0.66871700  0.96475400  0.06577300  1
  O  O2  1  0.82114800  0.26617600  0.12433300  1
  O  O3  1  0.96696800  0.55693800  0.15487200  1
  O  O4  1  0.08965900  0.87415400  0.21192300  1
  O  O5  1  0.19707400  0.18407400  0.24661800  1
  O  O6  1  0.33034700  0.47982500  0.27292400  1
  O  O7  1  0.47762600  0.79031900  0.32693900  1
  O  O8  1  0.63544400  0.07372200  0.36433300  1
  O  O9  1  0.77166600  0.38305000  0.40338000  1
  O  O10  1  0.87199700  0.67940800  0.45088900  1
  O  O11  1  0.00242800  0.99491900  0.50016200  1
  O  O12  1  0.11920900  0.30355800  0.54079700  1
  O  O13  1  0.24657600  0.63568900  0.59842300  1
  O  O14  1  0.37486200  0.91504200  0.63513400  1
  O  O15  1  0.52535700  0.20142400  0.69321900  1
  O  O16  1  0.64958800  0.52886700  0.71959200  1
  O  O17  1  0.78909500  0.83485300  0.75826600  1
  O  O18  1  0.90565300  0.12823900  0.79221500  1
  O  O19  1  0.04099100  0.43460600  0.84742800  1
  O  O20  1  0.17018800  0.73536100  0.88188200  1
  O  O21  1  0.32975000  0.04977400  0.92874500  1
  O  O22  1  0.44490100  0.34057000  0.97056100  1
loop_
_geom_bond_atom_site_label_1
_geom_bond_atom_site_label_2
_geom_bond_distance
_geom_bond_site_symmetry_2
Fe0 O21 2.114325 1_554
Fe0 O2 2.152899 1_455
Fe0 O19 2.165212 1_554
Fe0 O3 2.191317 1_455
Fe0 O5 2.206994 1_555
Fe0 O22 2.262193 1_554
Fe1 O6 2.136937 1_555
Fe1 O3 2.172014 1_455
Fe1 O20 2.184906 1_554
Fe1 O0 2.189281 1_555
Fe1 O4 2.247511 1_555
Fe1 O22 2.290627 1_554
Fe2 O4 2.069133 1_555
Fe2 O1 2.123533 1_555
Fe2 O21 2.157056 1_564
Fe2 O7 2.221664 1_555
Fe2 O0 2.230703 1_555
Fe2 O5 2.247643 1_565
Fe3 O6 2.135675 1_555
Fe3 O2 2.138515 1_555
Fe3 O1 2.140242 1_545
Fe3 O8 2.203639 1_555
Fe3 O22 2.231907 1_554
Fe3 O5 2.307146 1_555
Fe4 O2 2.114483 1_555
Fe4 O9 2.150642 1_555
Fe4 O7 2.185790 1_555
Fe4 O0 2.218043 1_555
Fe4 O6 2.231107 1_555
Fe4 O3 2.279530 1_555
Fe5 O8 2.113370 1_565
Fe5 O1 2.169599 1_555
Fe5 O3 2.175306 1_555
Fe5 O4 2.179812 1_655
Fe5 O7 2.209894 1_555
Fe5 O10 2.266393 1_555
Fe6 O2 1.990230 1_555
Fe6 O8 2.027447 1_555
Fe6 O4 2.048151 1_645
Fe6 O9 2.125128 1_555
Fe6 O5 2.137122 1_655
Fe6 O11 2.276066 1_645
Fe7 O6 2.023128 1_555
Fe7 O12 2.048407 1_555
Fe7 O10 2.059974 1_455
Fe7 O9 2.067577 1_455
Fe7 O5 2.068601 1_555
Fe7 O3 2.203797 1_455
Fe8 O4 2.120101 1_555
Fe8 O13 2.130704 1_555
Fe8 O11 2.174197 1_555
Fe8 O6 2.183615 1_555
Fe8 O7 2.204150 1_555
Fe8 O10 2.247263 1_455
Fe9 O7 2.137842 1_545
Fe9 O12 2.142079 1_555
Fe9 O14 2.174027 1_545
Fe9 O5 2.197867 1_555
Fe9 O8 2.240563 1_555
Fe9 O11 2.248270 1_545
Fe10 O13 2.144697 1_555
Fe10 O10 2.156798 1_555
Fe10 O16 2.179223 1_555
Fe10 O7 2.193103 1_555
Fe10 O9 2.232669 1_555
Fe10 O14 2.252936 1_555
Fe11 O8 2.071467 1_565
Fe11 O15 2.129943 1_565
Fe11 O11 2.179952 1_655
Fe11 O17 2.228270 1_555
Fe11 O14 2.278006 1_555
Fe11 O10 2.347275 1_555
Fe12 O9 2.107010 1_555
Fe12 O18 2.148675 1_555
Fe12 O15 2.156721 1_555
Fe12 O12 2.193392 1_655
Fe12 O11 2.203631 1_645
Fe12 O16 2.237541 1_555
Fe13 O12 2.136286 1_655
Fe13 O19 2.156736 1_655
Fe13 O16 2.175965 1_555
Fe13 O10 2.204359 1_555
Fe13 O13 2.214959 1_655
Fe13 O17 2.274871 1_555
Fe14 O13 2.007417 1_555
Fe14 O20 2.034521 1_555
Fe14 O14 2.051497 1_555
Fe14 O18 2.055450 1_465
Fe14 O17 2.133053 1_455
Fe14 O11 2.230522 1_555
Fe15 O15 2.134012 1_555
Fe15 O14 2.152054 1_545
Fe15 O19 2.159472 1_555
Fe15 O21 2.194927 1_555
Fe15 O12 2.207976 1_555
Fe15 O18 2.255123 1_455
Fe16 O15 2.139234 1_555
Fe16 O13 2.153630 1_555
Fe16 O20 2.174124 1_555
Fe16 O19 2.184043 1_555
Fe16 O22 2.184497 1_555
Fe16 O16 2.212280 1_555
Fe17 O16 2.144349 1_555
Fe17 O21 2.173095 1_565
Fe17 O20 2.176558 1_555
Fe17 O14 2.179433 1_555
Fe17 O0 2.194937 1_556
Fe17 O17 2.309004 1_555
Fe18 O15 2.025089 1_555
Fe18 O21 2.032013 1_555
Fe18 O1 2.061029 1_546
Fe18 O22 2.074503 1_555
Fe18 O18 2.087000 1_555
Fe18 O17 2.147548 1_545
Fe19 O19 2.142155 1_655
Fe19 O22 2.169995 1_555
Fe19 O0 2.184503 1_556
Fe19 O18 2.206030 1_555
Fe19 O16 2.238992 1_555
Fe19 O2 2.241883 1_556
Fe20 O20 2.103901 1_655
Fe20 O0 2.198366 1_556
Fe20 O1 2.198508 1_556
Fe20 O19 2.215974 1_655
Fe20 O3 2.221755 1_556
Fe20 O17 2.229368 1_555
