# generated using pymatgen
data_LaMgI5
_symmetry_space_group_name_H-M   'P 1'
_cell_length_a   4.34351624
_cell_length_b   7.77356056
_cell_length_c   17.44032395
_cell_angle_alpha   90.00000000
_cell_angle_beta   90.00000000
_cell_angle_gamma   106.22305706
_symmetry_Int_Tables_number   1
_chemical_formula_structural   LaMgI5
_chemical_formula_sum   'La2 Mg2 I10'
_cell_volume   565.41749630
_cell_formula_units_Z   2
loop_
 _symmetry_equiv_pos_site_id
 _symmetry_equiv_pos_as_xyz
  1  'x, y, z'
loop_
 _atom_site_type_symbol
 _atom_site_label
 _atom_site_symmetry_multiplicity
 _atom_site_fract_x
 _atom_site_fract_y
 _atom_site_fract_z
 _atom_site_occupancy
  La  La0  1  0.48467273  0.96934546  0.25000000  1
  La  La1  1  0.51532727  0.03065454  0.75000000  1
  Mg  Mg0  1  -0.00000000  -0.00000000  -0.00000000  1
  Mg  Mg1  1  -0.00000000  -0.00000000  0.50000000  1
  I  I0  1  0.10067121  0.20134341  0.14376170  1
  I  I1  1  0.10067121  0.20134341  0.35623830  1
  I  I2  1  0.39037363  0.78074526  0.06534995  1
  I  I3  1  0.16904857  0.33809714  0.75000000  1
  I  I4  1  0.39037363  0.78074526  0.43465005  1
  I  I5  1  0.60962637  0.21925474  0.56534995  1
  I  I6  1  0.60962637  0.21925474  0.93465005  1
  I  I7  1  0.83095143  0.66190286  0.25000000  1
  I  I8  1  0.89932879  0.79865659  0.64376170  1
  I  I9  1  0.89932879  0.79865659  0.85623830  1
loop_
_geom_bond_atom_site_label_1
_geom_bond_atom_site_label_2
_geom_bond_distance
_geom_bond_site_symmetry_2
I0 Mg0 2.923151 1_555
I0 La0 3.338874 1_445
I0 La0 3.338877 1_545
I0 I1 3.705661 1_555
I1 Mg1 2.923151 1_555
I1 La0 3.338874 1_445
I1 La0 3.338877 1_545
I2 Mg0 2.948507 1_665
I2 Mg0 2.948514 1_565
I2 La0 3.514593 1_555
I2 I7 3.984226 1_555
I2 I7 3.984231 1_455
I3 La1 3.159503 1_455
I3 La1 3.159503 1_555
I3 I5 3.984226 1_555
I3 I6 3.984226 1_555
I3 I5 3.984231 1_455
I3 I6 3.984231 1_455
I4 Mg1 2.948507 1_665
I4 Mg1 2.948514 1_565
I4 La0 3.514593 1_555
I4 I7 3.984226 1_555
I4 I7 3.984231 1_455
I5 Mg1 2.948507 1_555
I5 Mg1 2.948514 1_655
I5 La1 3.514593 1_555
I6 Mg0 2.948507 1_556
I6 Mg0 2.948514 1_656
I6 La1 3.514593 1_555
I7 La0 3.159503 1_655
I7 La0 3.159503 1_555
I8 Mg1 2.923151 1_665
I8 La1 3.338874 1_665
I8 La1 3.338877 1_565
I8 I9 3.705661 1_555
I9 Mg0 2.923151 1_666
I9 La1 3.338874 1_665
I9 La1 3.338877 1_565
