# generated using pymatgen
data_ScBiO3
_symmetry_space_group_name_H-M   'P 1'
_cell_length_a   5.91843586
_cell_length_b   5.91843586
_cell_length_c   5.91843565
_cell_angle_alpha   58.49293785
_cell_angle_beta   58.49293785
_cell_angle_gamma   58.49293269
_symmetry_Int_Tables_number   1
_chemical_formula_structural   ScBiO3
_chemical_formula_sum   'Sc2 Bi2 O6'
_cell_volume   141.53653537
_cell_formula_units_Z   2
loop_
 _symmetry_equiv_pos_site_id
 _symmetry_equiv_pos_as_xyz
  1  'x, y, z'
loop_
 _atom_site_type_symbol
 _atom_site_label
 _atom_site_symmetry_multiplicity
 _atom_site_fract_x
 _atom_site_fract_y
 _atom_site_fract_z
 _atom_site_occupancy
  Sc  Sc0  1  0.77948000  0.77948000  0.77948000  1
  Sc  Sc1  1  0.27948000  0.27948000  0.27948000  1
  Bi  Bi0  1  0.99423100  0.99423100  0.99423100  1
  Bi  Bi1  1  0.49423100  0.49423100  0.49423100  1
  O  O0  1  0.12124600  0.57259200  0.95402600  1
  O  O1  1  0.07259200  0.62124600  0.45402600  1
  O  O2  1  0.45402600  0.07259200  0.62124600  1
  O  O3  1  0.95402600  0.12124600  0.57259200  1
  O  O4  1  0.57259200  0.95402600  0.12124600  1
  O  O5  1  0.62124600  0.45402600  0.07259200  1
loop_
_geom_bond_atom_site_label_1
_geom_bond_atom_site_label_2
_geom_bond_distance
_geom_bond_site_symmetry_2
Bi0 O3 2.306930 1_565
Bi0 O0 2.306930 1_655
Bi0 O4 2.306930 1_556
Bi0 O5 2.542381 1_566
Bi0 O1 2.542381 1_656
Bi0 O2 2.542381 1_665
Bi1 O5 2.306930 1_555
Bi1 O1 2.306930 1_555
Bi1 O2 2.306930 1_555
Bi1 O3 2.542381 1_555
Bi1 O0 2.542381 1_555
Bi1 O4 2.542381 1_555
O0 Sc1 2.071578 1_556
O0 Sc0 2.220604 1_455
O1 Sc0 2.071578 1_455
O1 Sc1 2.220604 1_555
O2 Sc0 2.071578 1_545
O2 Sc1 2.220604 1_555
O3 Sc1 2.071579 1_655
O3 Sc0 2.220604 1_545
O4 Sc1 2.071578 1_565
O4 Sc0 2.220604 1_554
O5 Sc0 2.071579 1_554
O5 Sc1 2.220604 1_555
