# generated using pymatgen
data_LiVCoO4
_symmetry_space_group_name_H-M   'P 1'
_cell_length_a   5.97369201
_cell_length_b   8.23799100
_cell_length_c   5.97623101
_cell_angle_alpha   89.99930274
_cell_angle_beta   90.00787283
_cell_angle_gamma   90.00120242
_symmetry_Int_Tables_number   1
_chemical_formula_structural   LiVCoO4
_chemical_formula_sum   'Li4 V4 Co4 O16'
_cell_volume   294.09762265
_cell_formula_units_Z   4
loop_
 _symmetry_equiv_pos_site_id
 _symmetry_equiv_pos_as_xyz
  1  'x, y, z'
loop_
 _atom_site_type_symbol
 _atom_site_label
 _atom_site_symmetry_multiplicity
 _atom_site_fract_x
 _atom_site_fract_y
 _atom_site_fract_z
 _atom_site_occupancy
  Li  Li0  1  0.24401600  0.99997600  0.00003500  1
  Li  Li1  1  0.75596700  0.50002900  0.00000900  1
  Li  Li2  1  0.00002000  0.25000900  0.24407500  1
  Li  Li3  1  0.00000800  0.74999000  0.75592100  1
  V  V0  1  0.78036200  0.50003600  0.49991400  1
  V  V1  1  0.49992900  0.74995200  0.78042400  1
  V  V2  1  0.49997700  0.25002600  0.21962100  1
  V  V3  1  0.21972000  0.99996600  0.50003200  1
  Co  Co0  1  0.25849400  0.62508100  0.25849600  1
  Co  Co1  1  0.25851600  0.37495000  0.74153400  1
  Co  Co2  1  0.74154400  0.87492800  0.25847600  1
  Co  Co3  1  0.74151700  0.12509000  0.74148400  1
  O  O0  1  0.27209700  0.25822800  0.02950400  1
  O  O1  1  0.72781700  0.24179700  0.02945200  1
  O  O2  1  0.02941500  0.99175800  0.27223500  1
  O  O3  1  0.97068900  0.50826800  0.27218000  1
  O  O4  1  0.02938100  0.00820700  0.72781300  1
  O  O5  1  0.97061000  0.49181000  0.72776000  1
  O  O6  1  0.27218200  0.74173400  0.97062600  1
  O  O7  1  0.72784200  0.75826800  0.97047800  1
  O  O8  1  0.48512700  0.02272600  0.26913400  1
  O  O9  1  0.51482900  0.47730100  0.26911100  1
  O  O10  1  0.26922000  0.22724200  0.48508100  1
  O  O11  1  0.73077100  0.27275800  0.48500100  1
  O  O12  1  0.26920400  0.77269900  0.51490600  1
  O  O13  1  0.73074600  0.72721700  0.51488700  1
  O  O14  1  0.51491900  0.52271100  0.73093700  1
  O  O15  1  0.48508000  0.97724400  0.73087700  1
loop_
_geom_bond_atom_site_label_1
_geom_bond_atom_site_label_2
_geom_bond_distance
_geom_bond_site_symmetry_2
Li0 O4 2.072353 1_564
Li0 O2 2.072395 1_555
Li0 O6 2.141271 1_554
Li0 O0 2.141332 1_565
Li0 O8 2.166867 1_565
Li0 O15 2.167228 1_554
Li1 O3 2.072437 1_555
Li1 O5 2.072784 1_554
Li1 O1 2.141187 1_555
Li1 O7 2.141279 1_554
Li1 O14 2.166451 1_554
Li1 O9 2.167262 1_555
Li2 O0 2.071503 1_555
Li2 O1 2.072008 1_455
Li2 O2 2.141327 1_545
Li2 O3 2.141343 1_455
Li2 O10 2.166812 1_555
Li2 O11 2.166996 1_455
Li3 O7 2.071887 1_455
Li3 O6 2.072189 1_555
Li3 O5 2.140744 1_455
Li3 O4 2.141010 1_565
Li3 O12 2.167077 1_555
Li3 O13 2.167200 1_455
Co0 O9 1.957278 1_555
Co0 O12 1.957318 1_555
Co0 O3 1.971937 1_455
Co0 O6 1.972277 1_554
Co1 O14 1.957469 1_555
Co1 O10 1.957994 1_555
Co1 O5 1.972690 1_455
Co1 O0 1.973031 1_556
Co2 O8 1.957777 1_565
Co2 O13 1.957806 1_555
Co2 O2 1.972349 1_655
Co2 O7 1.972976 1_554
Co3 O11 1.957901 1_555
Co3 O15 1.958053 1_545
Co3 O4 1.972558 1_655
Co3 O1 1.973029 1_556
O0 V2 1.774303 1_555
O1 V2 1.774568 1_555
O2 V3 1.774777 1_555
O3 V0 1.774819 1_555
O4 V3 1.775086 1_545
O5 V0 1.774790 1_555
O6 V1 1.774261 1_555
O7 V1 1.774248 1_555
O8 V2 1.897802 1_555
O8 V3 2.110342 1_545
O9 V2 1.897581 1_555
O9 V0 2.110236 1_555
O10 V3 1.897604 1_545
O10 V2 2.110171 1_555
O11 V0 1.897692 1_555
O11 V2 2.109636 1_555
O12 V3 1.897502 1_555
O12 V1 2.109999 1_555
O13 V0 1.896960 1_555
O13 V1 2.110723 1_555
O14 V1 1.897348 1_555
O14 V0 2.110939 1_555
O15 V1 1.897768 1_555
O15 V3 2.109617 1_555
