# generated using pymatgen
data_Li11V16O32
_symmetry_space_group_name_H-M   'P 1'
_cell_length_a   8.47793300
_cell_length_b   8.51546742
_cell_length_c   10.36969855
_cell_angle_alpha   113.54338780
_cell_angle_beta   113.57166521
_cell_angle_gamma   91.29810714
_symmetry_Int_Tables_number   1
_chemical_formula_structural   Li11V16O32
_chemical_formula_sum   'Li11 V16 O32'
_cell_volume   614.04527242
_cell_formula_units_Z   1
loop_
 _symmetry_equiv_pos_site_id
 _symmetry_equiv_pos_as_xyz
  1  'x, y, z'
loop_
 _atom_site_type_symbol
 _atom_site_label
 _atom_site_symmetry_multiplicity
 _atom_site_fract_x
 _atom_site_fract_y
 _atom_site_fract_z
 _atom_site_occupancy
  Li  Li0  1  0.61068600  0.91203000  0.28611300  1
  Li  Li1  1  0.42615300  0.93579800  0.61920600  1
  Li  Li2  1  0.68659300  0.66757200  0.11262800  1
  Li  Li3  1  0.71846700  0.84691900  0.81946600  1
  Li  Li4  1  0.05863000  0.56626800  0.38116000  1
  Li  Li5  1  0.87750100  0.60763600  0.74067800  1
  Li  Li6  1  0.14511300  0.26005600  0.17024700  1
  Li  Li7  1  0.76298400  0.26479400  0.50929800  1
  Li  Li8  1  0.38832600  0.11758900  0.26369700  1
  Li  Li9  1  0.12540400  0.37038000  0.74298800  1
  Li  Li10  1  0.27880000  0.27200100  0.95766100  1
  V  V0  1  0.25085300  0.74220500  0.99676500  1
  V  V1  1  0.01093500  0.99257800  0.50345100  1
  V  V2  1  0.11007200  0.86396600  0.24255900  1
  V  V3  1  0.75026500  0.74656400  0.49969100  1
  V  V4  1  0.37057000  0.62385000  0.25011800  1
  V  V5  1  0.12761300  0.87839100  0.75605100  1
  V  V6  1  0.98857800  0.49812300  0.99701800  1
  V  V7  1  0.37723400  0.62411100  0.75343600  1
  V  V8  1  0.74162800  0.25197200  0.99868400  1
  V  V9  1  0.48879200  0.50227300  0.49817500  1
  V  V10  1  0.62953200  0.37892700  0.25490400  1
  V  V11  1  0.24773700  0.24922800  0.50031400  1
  V  V12  1  0.87521100  0.12458500  0.25439700  1
  V  V13  1  0.61340800  0.36625500  0.74484200  1
  V  V14  1  0.50591000  0.00068800  0.00504500  1
  V  V15  1  0.86701700  0.12093500  0.74532600  1
  O  O0  1  0.88397000  0.88867600  0.26442000  1
  O  O1  1  0.00994300  0.71981800  0.99516600  1
  O  O2  1  0.77456700  0.99226700  0.50717100  1
  O  O3  1  0.34695400  0.85843100  0.22350800  1
  O  O4  1  0.88026900  0.86987700  0.73701600  1
  O  O5  1  0.23759300  0.51288700  0.00720200  1
  O  O6  1  0.00565700  0.77253900  0.51912100  1
  O  O7  1  0.12036300  0.62053500  0.23040600  1
  O  O8  1  0.37752200  0.87045600  0.77120100  1
  O  O9  1  0.27202300  0.98447600  0.99817900  1
  O  O10  1  0.49421600  0.72512400  0.48693100  1
  O  O11  1  0.61317500  0.62985800  0.26252900  1
  O  O12  1  0.72532400  0.50383000  0.49420900  1
  O  O13  1  0.38919700  0.38208200  0.26122600  1
  O  O14  1  0.48471800  0.75814000  0.99776800  1
  O  O15  1  0.13991400  0.64057000  0.77650200  1
  O  O16  1  0.27016800  0.50253800  0.51229300  1
  O  O17  1  0.86082200  0.35361600  0.23881800  1
  O  O18  1  0.61171400  0.60121700  0.73025500  1
  O  O19  1  0.51402100  0.23933800  0.01940000  1
  O  O20  1  0.48996700  0.26935200  0.50166200  1
  O  O21  1  0.62505500  0.12587900  0.24538700  1
  O  O22  1  0.36920000  0.38253300  0.73543600  1
  O  O23  1  0.73183300  0.01309700  0.01304400  1
  O  O24  1  0.75297900  0.48023200  0.98385300  1
  O  O25  1  0.00353800  0.22565700  0.49467400  1
  O  O26  1  0.12579900  0.11329000  0.26412500  1
  O  O27  1  0.86546900  0.37114300  0.75559400  1
  O  O28  1  0.63832100  0.13336300  0.76047100  1
  O  O29  1  0.22264800  0.99556300  0.48657400  1
  O  O30  1  0.98420700  0.26642900  0.98545100  1
  O  O31  1  0.10441300  0.11487900  0.73951000  1
loop_
_geom_bond_atom_site_label_1
_geom_bond_atom_site_label_2
_geom_bond_distance
_geom_bond_site_symmetry_2
Li0 O2 1.952018 1_555
Li0 O21 2.038332 1_565
Li0 O3 2.045765 1_555
Li0 O11 2.317499 1_555
Li0 O0 2.420759 1_555
Li0 Li2 2.445144 1_555
Li0 O14 2.459794 1_554
Li1 O29 1.956633 1_555
Li1 O28 1.999588 1_565
Li1 O10 2.036388 1_555
Li1 O8 2.042978 1_555
Li2 O24 1.893358 1_554
Li2 O11 2.017519 1_555
Li2 O14 2.026298 1_554
Li2 O0 2.050787 1_555
Li3 O23 1.893743 1_566
Li3 O4 1.926212 1_555
Li3 O18 1.936695 1_555
Li3 Li5 2.512519 1_555
Li3 O8 2.755912 1_555
Li3 O28 2.778561 1_565
Li4 O6 1.968686 1_555
Li4 O17 2.004369 1_455
Li4 O16 2.010745 1_555
Li4 O7 2.037598 1_555
Li5 O27 2.083764 1_555
Li5 O15 2.096079 1_655
Li5 O12 2.117611 1_555
Li5 O1 2.169105 1_655
Li5 O18 2.210668 1_555
Li5 O4 2.248296 1_555
Li6 O30 1.879277 1_454
Li6 O26 1.904368 1_555
Li6 O13 1.951903 1_555
Li6 Li8 2.473237 1_555
Li6 O17 2.820376 1_455
Li7 O27 2.107085 1_555
Li7 O12 2.124529 1_555
Li7 O25 2.128612 1_655
Li7 O21 2.246722 1_555
Li7 O20 2.285866 1_555
Li7 O2 2.316661 1_545
Li8 O20 2.050143 1_555
Li8 O3 2.068860 1_545
Li8 O21 2.092375 1_555
Li8 O26 2.226966 1_555
Li8 O13 2.262518 1_555
Li8 O9 2.263347 1_544
Li9 O22 2.101214 1_555
Li9 O25 2.120376 1_555
Li9 O31 2.163636 1_555
Li9 O15 2.178018 1_555
Li9 O5 2.256377 1_556
Li9 O27 2.259168 1_455
Li10 O19 1.900082 1_556
Li10 O31 1.977580 1_555
Li10 O5 1.981860 1_556
Li10 O30 2.627582 1_455
Li10 O13 2.628755 1_556
Li10 O9 2.647510 1_545
O0 V2 2.024301 1_655
O0 V1 2.038692 1_655
O0 V12 2.054090 1_565
O1 V6 1.900883 1_455
O1 V0 2.039814 1_555
O1 V2 2.122249 1_556
O2 V1 2.019610 1_655
O2 V15 2.040839 1_565
O2 V3 2.064975 1_555
O3 V0 1.934945 1_554
O3 V2 2.094888 1_555
O3 V4 2.126214 1_555
O4 V3 2.021777 1_555
O4 V5 2.022898 1_655
O4 V15 2.112348 1_565
O5 V0 2.001551 1_554
O5 V6 2.069516 1_454
O5 V4 2.070744 1_555
O6 V1 1.945390 1_555
O6 V5 2.018591 1_555
O6 V3 2.090785 1_455
O7 V6 1.990296 1_454
O7 V2 2.031949 1_555
O7 V4 2.046490 1_555
O8 V14 1.995168 1_566
O8 V7 2.031047 1_555
O8 V5 2.065658 1_555
O9 V14 1.955190 1_566
O9 V0 2.060475 1_555
O9 V5 2.073263 1_555
O10 V9 1.947819 1_555
O10 V4 2.020224 1_555
O10 V3 2.120398 1_555
O11 V4 2.006944 1_555
O11 V3 2.023782 1_555
O11 V10 2.116269 1_555
O12 V9 2.021953 1_555
O12 V10 2.046764 1_555
O12 V3 2.048687 1_555
O13 V9 2.022439 1_555
O13 V10 2.065069 1_555
O13 V4 2.113377 1_555
O14 V0 1.979843 1_555
O14 V14 2.037578 1_566
O14 V7 2.085318 1_555
O15 V0 1.875187 1_555
O15 V5 2.119456 1_555
O15 V7 2.120334 1_555
O16 V9 1.916709 1_555
O16 V7 2.054882 1_555
O16 V11 2.110198 1_555
O17 V12 2.022720 1_555
O17 V10 2.042372 1_555
O17 V8 2.048658 1_554
O18 V9 1.980431 1_555
O18 V13 2.065836 1_555
O18 V7 2.099967 1_555
O19 V14 1.974994 1_555
O19 V10 2.012784 1_555
O19 V8 2.030224 1_554
O20 V9 1.998326 1_555
O20 V11 2.050867 1_555
O20 V13 2.079172 1_555
O21 V14 2.045341 1_555
O21 V12 2.085682 1_555
O21 V10 2.116093 1_555
O22 V7 1.986976 1_555
O22 V11 2.005360 1_555
O22 V13 2.043891 1_555
O23 V14 1.882395 1_555
O23 V12 2.063744 1_555
O23 V8 2.100234 1_554
O24 V6 1.944977 1_555
O24 V8 2.013260 1_555
O24 V13 2.040987 1_555
O25 V1 2.024091 1_545
O25 V11 2.050565 1_555
O25 V12 2.051545 1_455
O26 V11 2.015713 1_555
O26 V2 2.039462 1_545
O26 V12 2.092463 1_455
O27 V6 2.054869 1_555
O27 V15 2.090999 1_555
O27 V13 2.093430 1_555
O28 V15 2.008639 1_555
O28 V8 2.031133 1_555
O28 V13 2.062103 1_555
O29 V1 1.872330 1_555
O29 V2 2.079461 1_555
O29 V11 2.107260 1_565
O30 V6 1.926784 1_555
O30 V15 2.055080 1_555
O30 V8 2.119243 1_555
O31 V1 2.019688 1_545
O31 V15 2.038692 1_455
O31 V5 2.095337 1_545
