# generated using pymatgen
data_Ba(WO3)6
_symmetry_space_group_name_H-M   'P 1'
_cell_length_a   7.40244312
_cell_length_b   7.40241985
_cell_length_c   7.62455230
_cell_angle_alpha   89.99993792
_cell_angle_beta   90.00001518
_cell_angle_gamma   119.99997492
_symmetry_Int_Tables_number   1
_chemical_formula_structural   Ba(WO3)6
_chemical_formula_sum   'Ba1 W6 O18'
_cell_volume   361.82109351
_cell_formula_units_Z   1
loop_
 _symmetry_equiv_pos_site_id
 _symmetry_equiv_pos_as_xyz
  1  'x, y, z'
loop_
 _atom_site_type_symbol
 _atom_site_label
 _atom_site_symmetry_multiplicity
 _atom_site_fract_x
 _atom_site_fract_y
 _atom_site_fract_z
 _atom_site_occupancy
  Ba  Ba0  1  -0.00000096  -0.00000040  0.57292863  1
  W  W0  1  -0.00000012  0.49999974  0.75147560  1
  W  W1  1  0.00000223  0.50001034  0.24992055  1
  W  W2  1  0.49999993  0.49999977  0.75147565  1
  W  W3  1  0.49999063  0.49999491  0.24991861  1
  W  W4  1  0.50000910  -0.00000021  0.24991892  1
  W  W5  1  0.49999989  -0.00000019  0.75147583  1
  O  O0  1  0.00000005  0.49999989  0.99866122  1
  O  O1  1  -0.00000010  0.49999995  0.50096938  1
  O  O2  1  0.21183234  0.78816762  0.25247084  1
  O  O3  1  0.20903951  0.79096028  0.74602990  1
  O  O4  1  0.20903959  0.41807911  0.74602986  1
  O  O5  1  0.21183205  0.42366418  0.25247120  1
  O  O6  1  0.57633552  0.78816752  0.25247083  1
  O  O7  1  0.58192059  0.79096003  0.74602980  1
  O  O8  1  0.49999971  0.49999956  0.99866134  1
  O  O9  1  0.49999999  0.49999982  0.50096955  1
  O  O10  1  0.42366448  0.21183192  0.25247095  1
  O  O11  1  0.41807927  0.20903944  0.74602961  1
  O  O12  1  0.50000016  -0.00000029  0.50096953  1
  O  O13  1  0.79096015  0.58192043  0.74603006  1
  O  O14  1  0.78816765  0.57633530  0.25247103  1
  O  O15  1  0.50000006  -0.00000010  0.99866129  1
  O  O16  1  0.78816785  0.21183208  0.25247090  1
  O  O17  1  0.79096040  0.20903931  0.74602991  1
loop_
_geom_bond_atom_site_label_1
_geom_bond_atom_site_label_2
_geom_bond_distance
_geom_bond_site_symmetry_2
Ba0 O17 2.987516 1_455
Ba0 O13 2.987516 1_445
Ba0 O7 2.987519 1_445
Ba0 O4 2.987520 1_555
Ba0 O3 2.987522 1_545
Ba0 O11 2.987530 1_555
Ba0 O5 3.653282 1_555
Ba0 O16 3.653282 1_455
Ba0 O14 3.653285 1_445
Ba0 O6 3.653287 1_445
Ba0 O2 3.653293 1_545
Ba0 O10 3.653295 1_555
O0 W0 1.884680 1_555
O0 W1 1.915740 1_556
O1 W0 1.909998 1_555
O1 W1 1.914135 1_555
O1 O17 2.681744 1_455
O1 O3 2.681745 1_555
O1 O4 2.681746 1_555
O1 O13 2.681747 1_455
O2 W1 1.914256 1_555
O2 W4 1.914365 1_565
O3 W0 1.924130 1_555
O3 W5 1.924132 1_565
O4 W0 1.924131 1_555
O4 W2 1.924134 1_555
O4 O9 2.681747 1_555
O5 W3 1.914263 1_555
O5 W1 1.914355 1_555
O6 W4 1.914267 1_565
O6 W3 1.914329 1_555
O7 W2 1.924126 1_555
O7 W5 1.924129 1_565
O7 O9 2.681742 1_555
O8 W2 1.884680 1_555
O8 W3 1.915724 1_556
O9 W2 1.909997 1_555
O9 W3 1.914151 1_555
O10 W3 1.914297 1_555
O10 W4 1.914361 1_555
O11 W2 1.924127 1_555
O11 W5 1.924127 1_555
O11 O3 2.680174 1_545
O11 O4 2.680178 1_555
O11 O9 2.681739 1_555
O11 O12 2.681744 1_555
O12 W5 1.909998 1_555
O12 W4 1.914149 1_555
O12 O7 2.681740 1_545
O12 O3 2.681746 1_545
O12 O17 2.681746 1_555
O13 W0 1.924132 1_655
O13 W2 1.924133 1_555
O13 O7 2.680177 1_555
O13 O3 2.680184 1_655
O13 O9 2.681747 1_555
O14 W1 1.914279 1_655
O14 W3 1.914376 1_555
O15 W5 1.884678 1_555
O15 W4 1.915727 1_556
O16 W4 1.914271 1_555
O16 W1 1.914373 1_655
O17 W0 1.924129 1_655
O17 W5 1.924133 1_555
O17 O7 2.680175 1_545
O17 O4 2.680183 1_655
