# generated using pymatgen
data_Li5VF8
_symmetry_space_group_name_H-M   'P 1'
_cell_length_a   5.17230987
_cell_length_b   5.17230987
_cell_length_c   5.96311100
_cell_angle_alpha   90.00000000
_cell_angle_beta   90.00000000
_cell_angle_gamma   111.52550029
_symmetry_Int_Tables_number   1
_chemical_formula_structural   Li5VF8
_chemical_formula_sum   'Li5 V1 F8'
_cell_volume   148.40334072
_cell_formula_units_Z   1
loop_
 _symmetry_equiv_pos_site_id
 _symmetry_equiv_pos_as_xyz
  1  'x, y, z'
loop_
 _atom_site_type_symbol
 _atom_site_label
 _atom_site_symmetry_multiplicity
 _atom_site_fract_x
 _atom_site_fract_y
 _atom_site_fract_z
 _atom_site_occupancy
  Li  Li0  1  0.00000000  0.50000000  0.22844700  1
  Li  Li1  1  0.00000000  0.50000000  0.77155300  1
  Li  Li2  1  0.50000000  0.50000000  0.00000000  1
  Li  Li3  1  0.50000000  0.00000000  0.22844700  1
  Li  Li4  1  0.50000000  0.00000000  0.77155300  1
  V  V0  1  0.50000000  0.50000000  0.50000000  1
  F  F0  1  0.26463000  0.73537000  0.50000000  1
  F  F1  1  0.26855000  0.73145000  0.00000000  1
  F  F2  1  0.27333000  0.27333000  0.25993300  1
  F  F3  1  0.27333000  0.27333000  0.74006700  1
  F  F4  1  0.72667000  0.72667000  0.25993300  1
  F  F5  1  0.72667000  0.72667000  0.74006700  1
  F  F6  1  0.73145000  0.26855000  0.00000000  1
  F  F7  1  0.73537000  0.26463000  0.50000000  1
loop_
_geom_bond_atom_site_label_1
_geom_bond_atom_site_label_2
_geom_bond_distance
_geom_bond_site_symmetry_2
F0 V0 2.012896 1_555
F0 Li4 2.180570 1_565
F0 Li1 2.180570 1_555
F0 Li3 2.180570 1_565
F0 Li0 2.180570 1_555
F1 Li2 1.979372 1_555
F1 Li3 1.999501 1_565
F1 Li0 1.999501 1_555
F1 Li4 1.999501 1_564
F1 Li1 1.999501 1_554
F2 V0 1.946721 1_555
F2 Li2 2.035419 1_555
F2 Li3 2.150532 1_555
F2 Li0 2.150532 1_555
F3 V0 1.946721 1_555
F3 Li2 2.035419 1_556
F3 Li1 2.150532 1_555
F3 Li4 2.150532 1_555
F4 V0 1.946721 1_555
F4 Li2 2.035419 1_555
F4 Li0 2.150532 1_655
F4 Li3 2.150532 1_565
F5 V0 1.946721 1_555
F5 Li2 2.035419 1_556
F5 Li4 2.150532 1_565
F5 Li1 2.150532 1_655
F6 Li2 1.979372 1_555
F6 Li0 1.999501 1_655
F6 Li3 1.999501 1_555
F6 Li1 1.999501 1_654
F6 Li4 1.999501 1_554
F7 V0 2.012896 1_555
F7 Li1 2.180570 1_655
F7 Li4 2.180570 1_555
F7 Li0 2.180570 1_655
F7 Li3 2.180570 1_555
