# generated using pymatgen
data_Li7MnO5F
_symmetry_space_group_name_H-M   'P 1'
_cell_length_a   5.50971364
_cell_length_b   9.83315909
_cell_length_c   9.99307871
_cell_angle_alpha   100.11129543
_cell_angle_beta   89.30327530
_cell_angle_gamma   73.20307869
_symmetry_Int_Tables_number   1
_chemical_formula_structural   Li7MnO5F
_chemical_formula_sum   'Li28 Mn4 O20 F4'
_cell_volume   509.11751524
_cell_formula_units_Z   4
loop_
 _symmetry_equiv_pos_site_id
 _symmetry_equiv_pos_as_xyz
  1  'x, y, z'
loop_
 _atom_site_type_symbol
 _atom_site_label
 _atom_site_symmetry_multiplicity
 _atom_site_fract_x
 _atom_site_fract_y
 _atom_site_fract_z
 _atom_site_occupancy
  Li  Li0  1  0.50258500  0.37090700  0.01057800  1
  Li  Li1  1  0.75232100  0.87106900  0.26054800  1
  Li  Li2  1  0.00256000  0.37090000  0.51057300  1
  Li  Li3  1  0.25228800  0.87107100  0.76053500  1
  Li  Li4  1  0.59075700  0.05528200  0.85697400  1
  Li  Li5  1  0.84071200  0.55537500  0.10717300  1
  Li  Li6  1  0.09071500  0.05525600  0.35697600  1
  Li  Li7  1  0.34071000  0.55536400  0.60723200  1
  Li  Li8  1  0.72572400  0.24698800  0.77393000  1
  Li  Li9  1  0.97591300  0.74698800  0.02403900  1
  Li  Li10  1  0.22575900  0.24705100  0.27390000  1
  Li  Li11  1  0.47587300  0.74699500  0.52402100  1
  Li  Li12  1  0.10036000  0.23007700  0.97777200  1
  Li  Li13  1  0.35019500  0.73007300  0.22753600  1
  Li  Li14  1  0.60039700  0.23002700  0.47783700  1
  Li  Li15  1  0.85007400  0.73005700  0.72747300  1
  Li  Li16  1  0.13347900  0.46819800  0.90477900  1
  Li  Li17  1  0.38332800  0.96802000  0.15436200  1
  Li  Li18  1  0.63340000  0.46820800  0.40478900  1
  Li  Li19  1  0.88327800  0.96805700  0.65435800  1
  Li  Li20  1  0.22486100  0.11621500  0.72304300  1
  Li  Li21  1  0.47483500  0.61619100  0.97310700  1
  Li  Li22  1  0.72488400  0.11621000  0.22303700  1
  Li  Li23  1  0.97482800  0.61618100  0.47309600  1
  Li  Li24  1  0.32561000  0.34680000  0.69354900  1
  Li  Li25  1  0.57595900  0.84664500  0.94322200  1
  Li  Li26  1  0.82559700  0.34681800  0.19353000  1
  Li  Li27  1  0.07590100  0.84662900  0.44325800  1
  Mn  Mn0  1  0.26733600  0.48547800  0.24960800  1
  Mn  Mn1  1  0.51737500  0.98529800  0.49917100  1
  Mn  Mn2  1  0.76727000  0.48531000  0.74956000  1
  Mn  Mn3  1  0.01719900  0.98524600  0.99918600  1
  O  O0  1  0.27346900  0.03144500  0.89678700  1
  O  O1  1  0.52298800  0.53152700  0.14639900  1
  O  O2  1  0.77349600  0.03144400  0.39674300  1
  O  O3  1  0.02294300  0.53128700  0.64648300  1
  O  O4  1  0.56039200  0.11830900  0.66560700  1
  O  O5  1  0.81105200  0.61813300  0.91601100  1
  O  O6  1  0.06041400  0.11830400  0.16559700  1
  O  O7  1  0.31105800  0.61822000  0.41591800  1
  O  O8  1  0.01460300  0.32138700  0.78364200  1
  O  O9  1  0.26508100  0.82098300  0.03274400  1
  O  O10  1  0.51470300  0.32165500  0.28363700  1
  O  O11  1  0.76506400  0.82091800  0.53275100  1
  O  O12  1  0.15828700  0.39790900  0.08183600  1
  O  O13  1  0.40736200  0.89794700  0.33164500  1
  O  O14  1  0.65811400  0.39772600  0.58192100  1
  O  O15  1  0.90726600  0.89798200  0.83163000  1
  O  O16  1  0.48792900  0.44426000  0.84058400  1
  O  O17  1  0.73839800  0.94417200  0.09030000  1
  O  O18  1  0.98802000  0.44430400  0.34052800  1
  O  O19  1  0.23841800  0.94421500  0.59026300  1
  F  F0  1  0.75220000  0.18837600  0.95816500  1
  F  F1  1  0.00123400  0.68927500  0.20803000  1
  F  F2  1  0.25210800  0.18839000  0.45815800  1
  F  F3  1  0.50126300  0.68922600  0.70802400  1
loop_
_geom_bond_atom_site_label_1
_geom_bond_atom_site_label_2
_geom_bond_distance
_geom_bond_site_symmetry_2
Li0 O1 1.924309 1_555
Li0 O12 1.945705 1_555
Li0 O16 1.952558 1_554
Li0 Li16 2.334910 1_554
Li0 Li26 2.559982 1_555
Li1 O2 1.925992 1_565
Li1 O13 1.948823 1_555
Li1 O17 1.953904 1_555
Li1 Li17 2.335719 1_555
Li1 Li27 2.560376 1_655
Li2 O3 1.923141 1_555
Li2 O14 1.947125 1_455
Li2 O18 1.953326 1_455
Li2 Li24 2.560303 1_555
Li3 O0 1.926316 1_565
Li3 O15 1.949071 1_455
Li3 O19 1.954351 1_555
Li4 O0 1.876690 1_555
Li4 O15 1.946906 1_545
Li4 O4 2.105505 1_555
Li4 Li8 2.477827 1_555
Li5 O1 1.877760 1_555
Li5 O12 1.951650 1_655
Li5 O5 2.102378 1_554
Li5 Li9 2.478082 1_555
Li6 O2 1.876115 1_455
Li6 O13 1.947459 1_545
Li6 O6 2.105707 1_555
Li7 O3 1.879015 1_555
Li7 O14 1.951895 1_555
Li7 O7 2.104253 1_555
Li8 O8 1.931257 1_655
Li8 O4 1.952389 1_555
Li8 O16 1.994820 1_555
Li8 O14 2.591194 1_555
Li9 O9 1.930417 1_655
Li9 O5 1.950549 1_554
Li9 O17 1.993014 1_555
Li9 O15 2.596158 1_554
Li10 O10 1.932816 1_555
Li10 O6 1.952806 1_555
Li10 O18 1.994530 1_455
Li10 Li26 2.353320 1_455
Li10 Li6 2.478988 1_555
Li10 O12 2.592446 1_555
Li10 Li17 2.675089 1_545
Li10 Li22 2.677278 1_555
Li11 O11 1.930103 1_555
Li11 O7 1.950175 1_555
Li11 O19 1.993119 1_555
Li11 Li27 2.353867 1_555
Li11 Li7 2.478492 1_555
Li11 O13 2.595616 1_555
Li11 Li18 2.672233 1_555
Li11 Li23 2.676466 1_555
Li12 O12 1.901775 1_556
Li12 O0 1.931085 1_555
Li12 O8 2.276299 1_555
Li12 O6 2.373491 1_556
Li12 Li26 2.511063 1_456
Li13 O13 1.900515 1_555
Li13 O1 1.930429 1_555
Li13 O9 2.280148 1_555
Li13 O7 2.377873 1_555
Li13 Li27 2.509357 1_555
Li14 O14 1.900290 1_555
Li14 O2 1.930948 1_555
Li14 O10 2.278424 1_555
Li14 O4 2.372743 1_555
Li14 Li24 2.510811 1_555
Li15 O15 1.901176 1_555
Li15 O3 1.931916 1_655
Li15 O11 2.279209 1_555
Li15 O5 2.379535 1_555
Li15 Li25 2.509153 1_555
Li16 O5 1.940474 1_455
Li16 O8 1.982565 1_555
Li16 O16 1.982840 1_555
Li16 O12 2.001909 1_556
Li16 Li24 2.309067 1_555
Li16 Li5 2.437249 1_456
Li16 Li9 2.672337 1_456
Li17 O6 1.944001 1_565
Li17 O9 1.984604 1_555
Li17 O17 1.985886 1_555
Li17 O13 2.003116 1_555
Li17 Li25 2.309104 1_554
Li17 Li6 2.438463 1_565
Li18 O7 1.940605 1_555
Li18 O10 1.980281 1_555
Li18 O18 1.983993 1_555
Li18 O14 2.003541 1_555
Li18 Li26 2.309395 1_555
Li18 Li2 2.335095 1_655
Li18 Li7 2.437385 1_555
Li19 O4 1.943729 1_565
Li19 O11 1.985169 1_555
Li19 O19 1.986360 1_655
Li19 O15 2.003027 1_555
Li19 Li27 2.308881 1_655
Li19 Li3 2.335823 1_655
Li19 Li4 2.438198 1_565
Li19 Li8 2.674337 1_565
Li20 O4 1.935928 1_555
Li20 O19 1.939923 1_545
Li20 O8 1.995538 1_555
Li20 O0 2.042427 1_555
Li20 Li4 2.421470 1_555
Li20 Li24 2.548354 1_555
Li20 Li8 2.677259 1_455
Li21 O5 1.938061 1_555
Li21 O16 1.938627 1_555
Li21 O9 1.990671 1_556
Li21 O1 2.037658 1_556
Li21 Li5 2.422088 1_556
Li21 Li25 2.549135 1_555
Li21 Li9 2.676287 1_456
Li22 O6 1.935935 1_655
Li22 O17 1.940025 1_545
Li22 O10 1.997540 1_555
Li22 O2 2.042057 1_555
Li22 Li6 2.421265 1_655
Li22 Li26 2.548516 1_555
Li23 O18 1.938351 1_555
Li23 O7 1.938685 1_655
Li23 O11 1.990279 1_555
Li23 O3 2.039706 1_655
Li23 Li7 2.422535 1_655
Li23 Li27 2.548817 1_655
Li24 O16 1.977390 1_555
Li24 O8 2.024412 1_555
Li24 O3 2.205283 1_555
Li24 O4 2.211453 1_555
Li24 O14 2.351172 1_555
Li24 Li8 2.353241 1_555
Li24 Li7 2.382208 1_555
Li25 O17 1.978392 1_556
Li25 O9 2.022285 1_556
Li25 O0 2.204446 1_565
Li25 O5 2.212566 1_555
Li25 O15 2.347599 1_555
Li25 Li9 2.354063 1_556
Li25 Li4 2.382061 1_565
Li25 Li3 2.560544 1_555
Li26 O18 1.977614 1_555
Li26 O10 2.022834 1_555
Li26 O1 2.206757 1_555
Li26 O6 2.211701 1_655
Li26 O12 2.353206 1_655
Li26 Li5 2.382371 1_555
Li27 O19 1.978449 1_555
Li27 O11 2.022171 1_455
Li27 O2 2.204589 1_465
Li27 O7 2.211753 1_555
Li27 O13 2.348314 1_555
Li27 Li6 2.382168 1_565
Mn0 O10 1.871595 1_555
Mn0 O12 1.931300 1_555
Mn0 O1 1.936521 1_555
Mn0 O18 1.952706 1_455
Mn0 O7 1.988372 1_555
Mn1 O11 1.874661 1_555
Mn1 O13 1.930928 1_555
Mn1 O2 1.934680 1_565
Mn1 O19 1.951425 1_555
Mn1 O4 1.989479 1_565
Mn2 O8 1.872357 1_655
Mn2 O14 1.930568 1_555
Mn2 O3 1.935487 1_655
Mn2 O16 1.952704 1_555
Mn2 O5 1.989929 1_555
Mn3 O9 1.874312 1_556
Mn3 O15 1.930638 1_455
Mn3 O0 1.935447 1_565
Mn3 O17 1.950764 1_456
Mn3 O6 1.989899 1_566
F0 Li0 1.900796 1_556
F0 Li4 1.938187 1_555
F0 Li8 2.018295 1_555
F0 Li12 2.078896 1_655
F0 Mn3 2.214949 1_645
F0 Li26 2.687652 1_556
F1 Li1 1.894197 1_455
F1 Li5 1.939170 1_455
F1 Li9 2.012202 1_455
F1 Li13 2.079199 1_555
F1 Mn0 2.224222 1_555
F1 Li27 2.683886 1_555
F2 Li2 1.900491 1_555
F2 Li6 1.938250 1_555
F2 Li10 2.018721 1_555
F2 Li14 2.079363 1_555
F2 Mn1 2.215235 1_545
F2 Li24 2.687896 1_555
F3 Li3 1.894687 1_555
F3 Li7 1.938750 1_555
F3 Li11 2.012549 1_555
F3 Li15 2.078491 1_555
F3 Mn2 2.224734 1_555
F3 Li25 2.684005 1_555
