# generated using pymatgen
data_Li5V12O32
_symmetry_space_group_name_H-M   'P 1'
_cell_length_a   7.69185627
_cell_length_b   7.69185627
_cell_length_c   12.16220709
_cell_angle_alpha   74.29894484
_cell_angle_beta   74.29894484
_cell_angle_gamma   56.48995696
_symmetry_Int_Tables_number   1
_chemical_formula_structural   Li5V12O32
_chemical_formula_sum   'Li5 V12 O32'
_cell_volume   570.96116627
_cell_formula_units_Z   1
loop_
 _symmetry_equiv_pos_site_id
 _symmetry_equiv_pos_as_xyz
  1  'x, y, z'
loop_
 _atom_site_type_symbol
 _atom_site_label
 _atom_site_symmetry_multiplicity
 _atom_site_fract_x
 _atom_site_fract_y
 _atom_site_fract_z
 _atom_site_occupancy
  Li  Li0  1  0.12455500  0.12455500  0.68399600  1
  Li  Li1  1  0.62537700  0.62537700  0.68437000  1
  Li  Li2  1  0.37667800  0.87243100  0.31615700  1
  Li  Li3  1  0.87243100  0.37667800  0.31615700  1
  Li  Li4  1  0.08720800  0.08720800  0.05164700  1
  V  V0  1  0.83734700  0.83734700  0.80663300  1
  V  V1  1  0.33977600  0.33977600  0.80364600  1
  V  V2  1  0.54658600  0.04616600  0.46324300  1
  V  V3  1  0.04616600  0.54658600  0.46324300  1
  V  V4  1  0.27672100  0.27672100  0.07939600  1
  V  V5  1  0.77232100  0.77232100  0.07961400  1
  V  V6  1  0.72714500  0.22827400  0.91948700  1
  V  V7  1  0.22827400  0.72714500  0.91948700  1
  V  V8  1  0.95354900  0.95354900  0.53749400  1
  V  V9  1  0.45337700  0.45337700  0.53669300  1
  V  V10  1  0.65898800  0.15938400  0.19679300  1
  V  V11  1  0.15938400  0.65898800  0.19679300  1
  O  O0  1  0.11974200  0.61876100  0.82621900  1
  O  O1  1  0.61876100  0.11974200  0.82621900  1
  O  O2  1  0.23369800  0.23369800  0.95467400  1
  O  O3  1  0.73407500  0.73407500  0.95259800  1
  O  O4  1  0.84068400  0.84068400  0.46036700  1
  O  O5  1  0.34095200  0.34095200  0.46022300  1
  O  O6  1  0.76430700  0.76430700  0.72095800  1
  O  O7  1  0.26358200  0.26358200  0.72216100  1
  O  O8  1  0.52421900  0.02577500  0.32723200  1
  O  O9  1  0.02577500  0.52421900  0.32723200  1
  O  O10  1  0.93188100  0.43198400  0.56237900  1
  O  O11  1  0.43198400  0.93188100  0.56237900  1
  O  O12  1  0.56598900  0.06519600  0.07169900  1
  O  O13  1  0.06519600  0.56598900  0.07169900  1
  O  O14  1  0.33417400  0.83620000  0.81007100  1
  O  O15  1  0.83620000  0.33417400  0.81007100  1
  O  O16  1  0.16275200  0.16275200  0.18249400  1
  O  O17  1  0.66496500  0.66496500  0.18930000  1
  O  O18  1  0.43519700  0.43519700  0.93054500  1
  O  O19  1  0.93610000  0.93610000  0.92791200  1
  O  O20  1  0.06788600  0.06788600  0.43788200  1
  O  O21  1  0.56801400  0.56801400  0.43795700  1
  O  O22  1  0.97422500  0.97422500  0.67329800  1
  O  O23  1  0.47378400  0.47378400  0.67352800  1
  O  O24  1  0.73672300  0.23504900  0.27853000  1
  O  O25  1  0.23504900  0.73672300  0.27853000  1
  O  O26  1  0.65876800  0.15926200  0.53980400  1
  O  O27  1  0.15926200  0.65876800  0.53980400  1
  O  O28  1  0.25743300  0.77798800  0.04614200  1
  O  O29  1  0.77798800  0.25743300  0.04614200  1
  O  O30  1  0.88145100  0.88145100  0.17472900  1
  O  O31  1  0.38177700  0.38177700  0.17254600  1
loop_
_geom_bond_atom_site_label_1
_geom_bond_atom_site_label_2
_geom_bond_distance
_geom_bond_site_symmetry_2
Li0 O7 2.074266 1_555
Li0 O22 2.080930 1_445
Li0 O11 2.323746 1_545
Li0 O10 2.323746 1_455
Li0 O15 2.327876 1_455
Li0 O14 2.327876 1_545
Li1 O6 2.063402 1_555
Li1 O23 2.098652 1_555
Li1 O10 2.324075 1_555
Li1 O11 2.324075 1_555
Li1 O15 2.337050 1_555
Li1 O14 2.337050 1_555
Li2 O25 2.066346 1_555
Li2 O8 2.084229 1_565
Li2 O21 2.311002 1_555
Li2 O17 2.327613 1_555
Li2 O20 2.334971 1_565
Li2 O16 2.400575 1_565
Li3 O24 2.066346 1_555
Li3 O9 2.084229 1_655
Li3 O21 2.311002 1_555
Li3 O17 2.327613 1_555
Li3 O20 2.334971 1_655
Li3 O16 2.400575 1_655
Li4 O2 1.973226 1_554
Li4 O29 1.994019 1_455
Li4 O28 1.994019 1_545
Li4 O16 2.140468 1_555
Li4 O30 2.729763 1_445
O0 V1 1.897875 1_555
O0 V0 1.905934 1_455
O0 V7 2.114589 1_555
O1 V1 1.897875 1_555
O1 V0 1.905934 1_545
O1 V6 2.114589 1_555
O2 V4 1.784459 1_556
O2 V1 1.954027 1_555
O3 V5 1.773970 1_556
O3 V0 1.893086 1_555
O4 V3 1.912045 1_655
O4 V2 1.912045 1_565
O4 V8 2.025076 1_555
O5 V3 1.915938 1_555
O5 V2 1.915938 1_555
O5 V9 2.014171 1_555
O6 V0 1.642932 1_555
O7 V1 1.636185 1_555
O8 V2 1.764882 1_555
O8 V10 2.012790 1_555
O9 V3 1.764882 1_555
O9 V11 2.012790 1_555
O10 V3 1.646285 1_655
O11 V2 1.646285 1_565
O12 V4 1.891849 1_555
O12 V5 1.902781 1_545
O12 V10 2.260339 1_555
O12 V6 2.398986 1_554
O13 V4 1.891849 1_555
O13 V5 1.902781 1_455
O13 V11 2.260339 1_555
O13 V7 2.398986 1_554
O14 V7 1.643668 1_555
O15 V6 1.643668 1_555
O16 V4 1.663703 1_555
O17 V5 1.644347 1_555
O18 V7 1.897385 1_555
O18 V6 1.897385 1_555
O18 V1 2.297918 1_555
O18 V4 2.345441 1_556
O19 V7 1.902776 1_655
O19 V6 1.902776 1_565
O19 V0 2.275864 1_555
O19 V5 2.411322 1_556
O20 V8 1.647826 1_445
O21 V9 1.646022 1_555
O22 V8 1.758092 1_555
O22 V0 2.054874 1_555
O23 V9 1.768861 1_555
O23 V1 2.009170 1_555
O24 V10 1.644258 1_555
O25 V11 1.644258 1_555
O26 V9 1.911793 1_555
O26 V8 1.916708 1_545
O26 V2 2.017547 1_555
O26 O5 2.375324 1_555
O26 O4 2.379022 1_545
O27 V9 1.911793 1_555
O27 V8 1.916708 1_455
O27 V3 2.017547 1_555
O27 O5 2.375324 1_555
O27 O4 2.379022 1_455
O28 V7 1.784933 1_554
O28 V11 1.967324 1_555
O29 V6 1.784933 1_554
O29 V10 1.967324 1_555
O30 V10 1.895550 1_565
O30 V11 1.895550 1_655
O30 V5 2.139291 1_555
O31 V11 1.897260 1_555
O31 V10 1.897260 1_555
O31 V4 2.073991 1_555
