# generated using pymatgen
data_LiMn3(BO3)3
_symmetry_space_group_name_H-M   'P 1'
_cell_length_a   5.33003100
_cell_length_b   5.90777293
_cell_length_c   12.05925331
_cell_angle_alpha   83.25775747
_cell_angle_beta   80.14624730
_cell_angle_gamma   88.20779775
_symmetry_Int_Tables_number   1
_chemical_formula_structural   LiMn3(BO3)3
_chemical_formula_sum   'Li2 Mn6 B6 O18'
_cell_volume   371.51571268
_cell_formula_units_Z   2
loop_
 _symmetry_equiv_pos_site_id
 _symmetry_equiv_pos_as_xyz
  1  'x, y, z'
loop_
 _atom_site_type_symbol
 _atom_site_label
 _atom_site_symmetry_multiplicity
 _atom_site_fract_x
 _atom_site_fract_y
 _atom_site_fract_z
 _atom_site_occupancy
  Li  Li0  1  0.70389700  0.07240400  0.76721700  1
  Li  Li1  1  0.29610300  0.92759600  0.23278300  1
  Mn  Mn0  1  0.29189900  0.90087400  0.64718700  1
  Mn  Mn1  1  0.62408700  0.25645700  0.99495800  1
  Mn  Mn2  1  0.93186300  0.58844500  0.33078300  1
  Mn  Mn3  1  0.37591300  0.74354300  0.00504200  1
  Mn  Mn4  1  0.70810100  0.09912600  0.35281300  1
  Mn  Mn5  1  0.06813700  0.41155500  0.66921700  1
  B  B0  1  0.52346200  0.51960500  0.77918400  1
  B  B1  1  0.15340800  0.12616500  0.87997800  1
  B  B2  1  0.47653800  0.48039500  0.22081600  1
  B  B3  1  0.84659200  0.87383500  0.12002200  1
  B  B4  1  0.18370900  0.17936600  0.44261800  1
  B  B5  1  0.81629100  0.82063400  0.55738200  1
  O  O0  1  0.29862600  0.61466900  0.74592000  1
  O  O1  1  0.68460300  0.39568600  0.71073700  1
  O  O2  1  0.09597400  0.10127800  0.77310800  1
  O  O3  1  0.55762300  0.53830200  0.89041400  1
  O  O4  1  0.99297900  0.23354300  0.95651400  1
  O  O5  1  0.39759900  0.04666300  0.90275400  1
  O  O6  1  0.70137400  0.38533100  0.25408000  1
  O  O7  1  0.44237700  0.46169800  0.10958600  1
  O  O8  1  0.31539700  0.60431400  0.28926300  1
  O  O9  1  0.00702100  0.76645700  0.04348600  1
  O  O10  1  0.90402600  0.89872200  0.22689200  1
  O  O11  1  0.60240100  0.95333700  0.09724600  1
  O  O12  1  0.94989400  0.27002700  0.42168900  1
  O  O13  1  0.34152100  0.08001800  0.35961600  1
  O  O14  1  0.75650300  0.81285200  0.45005300  1
  O  O15  1  0.24349700  0.18714800  0.54994700  1
  O  O16  1  0.65847900  0.91998200  0.64038400  1
  O  O17  1  0.05010600  0.72997300  0.57831100  1
loop_
_geom_bond_atom_site_label_1
_geom_bond_atom_site_label_2
_geom_bond_distance
_geom_bond_site_symmetry_2
Li0 O16 1.916408 1_545
Li0 O1 1.956619 1_555
Li0 O5 2.098524 1_555
Li0 O2 2.115961 1_655
Li1 O13 1.916408 1_565
Li1 O8 1.956619 1_555
Li1 O11 2.098524 1_555
Li1 O10 2.115961 1_455
Mn0 O16 1.947791 1_555
Mn0 O0 1.953447 1_555
Mn0 O15 1.978010 1_565
Mn0 O17 2.003710 1_555
Mn0 O2 2.144804 1_565
Mn1 O4 1.945589 1_555
Mn1 O3 2.027427 1_555
Mn1 O7 2.044732 1_556
Mn1 O11 2.046274 1_546
Mn1 O5 2.259734 1_555
Mn2 O8 2.022146 1_655
Mn2 O12 2.071290 1_555
Mn2 O10 2.111652 1_555
Mn2 O6 2.132248 1_555
Mn2 O14 2.147101 1_555
Mn3 O9 1.945589 1_555
Mn3 O7 2.027427 1_555
Mn3 O3 2.044732 1_554
Mn3 O5 2.046274 1_564
Mn3 O11 2.259734 1_555
Mn4 O13 1.947791 1_555
Mn4 O6 1.953447 1_555
Mn4 O14 1.978010 1_545
Mn4 O12 2.003710 1_555
Mn4 O10 2.144804 1_545
Mn5 O1 2.022146 1_455
Mn5 O17 2.071290 1_555
Mn5 O2 2.111652 1_555
Mn5 O0 2.132248 1_555
Mn5 O15 2.147101 1_555
B0 O1 1.347168 1_555
B0 O3 1.401505 1_555
B0 O0 1.407830 1_555
B1 O4 1.348663 1_455
B1 O2 1.399501 1_555
B1 O5 1.429646 1_555
B2 O8 1.347168 1_555
B2 O7 1.401505 1_555
B2 O6 1.407830 1_555
B3 O9 1.348663 1_655
B3 O10 1.399501 1_555
B3 O11 1.429646 1_555
B4 O13 1.368497 1_555
B4 O15 1.391028 1_555
B4 O12 1.392068 1_455
B5 O16 1.368497 1_555
B5 O14 1.391028 1_555
B5 O17 1.392068 1_655
