# generated using pymatgen
data_HoBrO
_symmetry_space_group_name_H-M   'P 1'
_cell_length_a   20.46043186
_cell_length_b   20.46043186
_cell_length_c   20.46043286
_cell_angle_alpha   21.41799962
_cell_angle_beta   21.41799962
_cell_angle_gamma   21.41800432
_symmetry_Int_Tables_number   1
_chemical_formula_structural   HoBrO
_chemical_formula_sum   'Ho16 Br16 O16'
_cell_volume   1000.66737580
_cell_formula_units_Z   16
loop_
 _symmetry_equiv_pos_site_id
 _symmetry_equiv_pos_as_xyz
  1  'x, y, z'
loop_
 _atom_site_type_symbol
 _atom_site_label
 _atom_site_symmetry_multiplicity
 _atom_site_fract_x
 _atom_site_fract_y
 _atom_site_fract_z
 _atom_site_occupancy
  Ho  Ho0_0  1  0.05989514  0.05989514  0.05989514  1
  Ho  Ho0_1  1  0.05989513  0.05989513  0.55989513  1
  Ho  Ho0_2  1  0.05989514  0.55989513  0.05989514  1
  Ho  Ho0_3  1  0.05989514  0.55989513  0.55989513  1
  Ho  Ho0_4  1  0.55989513  0.05989514  0.05989514  1
  Ho  Ho0_5  1  0.55989513  0.05989514  0.55989513  1
  Ho  Ho0_6  1  0.55989513  0.55989513  0.05989513  1
  Ho  Ho0_7  1  0.55989513  0.55989513  0.55989513  1
  Ho  Ho1_0  1  0.44010486  0.44010486  0.44010487  1
  Ho  Ho1_1  1  0.44010487  0.44010487  0.94010487  1
  Ho  Ho1_2  1  0.44010486  0.94010487  0.44010487  1
  Ho  Ho1_3  1  0.44010487  0.94010487  0.94010487  1
  Ho  Ho1_4  1  0.94010487  0.44010486  0.44010487  1
  Ho  Ho1_5  1  0.94010487  0.44010487  0.94010487  1
  Ho  Ho1_6  1  0.94010487  0.94010487  0.44010487  1
  Ho  Ho1_7  1  0.94010487  0.94010487  0.94010487  1
  Br  Br0_0  1  0.19458604  0.19458604  0.19458604  1
  Br  Br0_1  1  0.19458604  0.19458604  0.69458604  1
  Br  Br0_2  1  0.19458604  0.69458604  0.19458604  1
  Br  Br0_3  1  0.19458604  0.69458604  0.69458604  1
  Br  Br0_4  1  0.69458604  0.19458604  0.19458604  1
  Br  Br0_5  1  0.69458604  0.19458604  0.69458604  1
  Br  Br0_6  1  0.69458604  0.69458604  0.19458604  1
  Br  Br0_7  1  0.69458604  0.69458604  0.69458604  1
  Br  Br1_0  1  0.30541396  0.30541396  0.30541396  1
  Br  Br1_1  1  0.30541396  0.30541396  0.80541396  1
  Br  Br1_2  1  0.30541396  0.80541396  0.30541396  1
  Br  Br1_3  1  0.30541396  0.80541396  0.80541396  1
  Br  Br1_4  1  0.80541396  0.30541396  0.30541396  1
  Br  Br1_5  1  0.80541396  0.30541396  0.80541396  1
  Br  Br1_6  1  0.80541396  0.80541396  0.30541396  1
  Br  Br1_7  1  0.80541396  0.80541396  0.80541396  1
  O  O0_0  1  0.40259077  0.40259077  0.40259077  1
  O  O0_1  1  0.40259077  0.40259077  0.90259077  1
  O  O0_2  1  0.40259076  0.90259077  0.40259077  1
  O  O0_3  1  0.40259077  0.90259077  0.90259077  1
  O  O0_4  1  0.90259077  0.40259076  0.40259077  1
  O  O0_5  1  0.90259077  0.40259077  0.90259077  1
  O  O0_6  1  0.90259077  0.90259077  0.40259077  1
  O  O0_7  1  0.90259077  0.90259077  0.90259077  1
  O  O1_0  1  0.09740923  0.09740923  0.09740923  1
  O  O1_1  1  0.09740923  0.09740923  0.59740923  1
  O  O1_2  1  0.09740924  0.59740924  0.09740923  1
  O  O1_3  1  0.09740923  0.59740923  0.59740923  1
  O  O1_4  1  0.59740924  0.09740924  0.09740923  1
  O  O1_5  1  0.59740923  0.09740923  0.59740923  1
  O  O1_6  1  0.59740923  0.59740923  0.09740923  1
  O  O1_7  1  0.59740923  0.59740923  0.59740923  1
loop_
_geom_bond_atom_site_label_1
_geom_bond_atom_site_label_2
_geom_bond_distance
_geom_bond_site_symmetry_2
Ho0_0 O1_0 2.249033 1_555
Ho0_0 O0_6 2.265697 1_445
Ho0_0 O0_5 2.265698 1_454
Ho0_0 O0_3 2.265698 1_544
Ho0_1 O1_1 2.249033 1_555
Ho0_1 O0_7 2.265697 1_445
Ho0_1 O0_4 2.265698 1_455
Ho0_1 O0_2 2.265698 1_545
Ho0_2 O1_2 2.249033 1_555
Ho0_2 O0_4 2.265697 1_455
Ho0_2 O0_7 2.265698 1_454
Ho0_2 O0_1 2.265698 1_554
Ho0_3 O1_3 2.249033 1_555
Ho0_3 O0_5 2.265697 1_455
Ho0_3 O0_0 2.265698 1_555
Ho0_3 O0_6 2.265698 1_455
Ho0_4 O1_4 2.249033 1_555
Ho0_4 O0_2 2.265697 1_545
Ho0_4 O0_7 2.265698 1_544
Ho0_4 O0_1 2.265698 1_554
Ho0_5 O1_5 2.249033 1_555
Ho0_5 O0_3 2.265697 1_545
Ho0_5 O0_0 2.265698 1_555
Ho0_5 O0_6 2.265698 1_545
Ho0_6 O1_6 2.249033 1_555
Ho0_6 O0_0 2.265697 1_555
Ho0_6 O0_3 2.265698 1_554
Ho0_6 O0_5 2.265698 1_554
Ho0_7 O1_7 2.249033 1_555
Ho0_7 O0_1 2.265697 1_555
Ho0_7 O0_4 2.265698 1_555
Ho0_7 O0_2 2.265698 1_555
Ho1_0 O0_0 2.249033 1_555
Ho1_0 O1_6 2.265697 1_555
Ho1_0 O1_5 2.265698 1_555
Ho1_0 O1_3 2.265698 1_555
Ho1_1 O0_1 2.249033 1_555
Ho1_1 O1_7 2.265697 1_555
Ho1_1 O1_2 2.265698 1_556
Ho1_1 O1_4 2.265698 1_556
Ho1_2 O0_2 2.249033 1_555
Ho1_2 O1_4 2.265697 1_565
Ho1_2 O1_7 2.265698 1_555
Ho1_2 O1_1 2.265698 1_565
Ho1_3 O0_3 2.249033 1_555
Ho1_3 O1_5 2.265697 1_565
Ho1_3 O1_0 2.265698 1_566
Ho1_3 O1_6 2.265698 1_556
Ho1_4 O0_4 2.249033 1_555
Ho1_4 O1_2 2.265697 1_655
Ho1_4 O1_7 2.265698 1_555
Ho1_4 O1_1 2.265698 1_655
Ho1_5 O0_5 2.249033 1_555
Ho1_5 O1_3 2.265697 1_655
Ho1_5 O1_0 2.265698 1_656
Ho1_5 O1_6 2.265698 1_556
Ho1_6 O0_6 2.249033 1_555
Ho1_6 O1_0 2.265697 1_665
Ho1_6 O1_5 2.265698 1_565
Ho1_6 O1_3 2.265698 1_655
Ho1_7 O0_7 2.249033 1_555
Ho1_7 O1_1 2.265697 1_665
Ho1_7 O1_4 2.265698 1_566
Ho1_7 O1_2 2.265698 1_656
Br0_0 Ho0_2 2.914315 1_555
Br0_0 Ho0_4 2.914315 1_555
Br0_0 Ho0_1 2.914316 1_555
Br0_0 O0_1 3.310626 1_554
Br0_0 O0_4 3.310626 1_455
Br0_0 O0_2 3.310626 1_545
Br0_0 Br0_3 3.801977 1_545
Br0_0 Br0_5 3.801977 1_455
Br0_0 Br0_5 3.801977 1_554
Br0_0 Br0_3 3.801977 1_554
Br0_0 Br0_6 3.801978 1_455
Br0_0 Br0_6 3.801978 1_545
Br0_0 Br1_2 4.003117 1_545
Br0_0 Br1_4 4.003117 1_455
Br0_0 Br1_1 4.003117 1_554
Br0_1 Ho0_3 2.914315 1_555
Br0_1 Ho0_5 2.914315 1_555
Br0_1 Ho0_0 2.914316 1_556
Br0_1 O0_0 3.310626 1_555
Br0_1 O0_3 3.310626 1_545
Br0_1 O0_5 3.310626 1_455
Br0_1 Br0_4 3.801977 1_456
Br0_1 Br0_2 3.801977 1_546
Br0_1 Br0_4 3.801977 1_555
Br0_1 Br0_2 3.801977 1_555
Br0_1 Br0_7 3.801978 1_455
Br0_1 Br0_7 3.801978 1_545
Br0_1 Br1_3 4.003117 1_545
Br0_1 Br1_5 4.003117 1_455
Br0_1 Br1_0 4.003117 1_555
Br0_2 Ho0_6 2.914315 1_555
Br0_2 Ho0_0 2.914315 1_565
Br0_2 Ho0_3 2.914316 1_555
Br0_2 O0_3 3.310626 1_554
Br0_2 O0_0 3.310626 1_555
Br0_2 O0_6 3.310626 1_455
Br0_2 Br0_7 3.801977 1_455
Br0_2 Br0_7 3.801977 1_554
Br0_2 Br0_4 3.801978 1_555
Br0_2 Br0_4 3.801978 1_465
Br0_2 Br1_6 4.003117 1_455
Br0_2 Br1_0 4.003117 1_555
Br0_2 Br1_3 4.003117 1_554
Br0_3 Ho0_7 2.914315 1_555
Br0_3 Ho0_1 2.914315 1_565
Br0_3 Ho0_2 2.914316 1_556
Br0_3 O0_2 3.310626 1_555
Br0_3 O0_7 3.310626 1_455
Br0_3 O0_1 3.310626 1_555
Br0_3 Br0_6 3.801977 1_456
Br0_3 Br0_6 3.801977 1_555
Br0_3 Br0_5 3.801978 1_465
Br0_3 Br0_5 3.801978 1_555
Br0_3 Br1_7 4.003117 1_455
Br0_3 Br1_1 4.003117 1_555
Br0_3 Br1_2 4.003117 1_555
Br0_4 Ho0_6 2.914315 1_555
Br0_4 Ho0_0 2.914315 1_655
Br0_4 Ho0_5 2.914316 1_555
Br0_4 O0_5 3.310626 1_554
Br0_4 O0_0 3.310626 1_555
Br0_4 O0_6 3.310626 1_545
Br0_4 Br0_7 3.801977 1_545
Br0_4 Br0_7 3.801977 1_554
Br0_4 Br1_6 4.003117 1_545
Br0_4 Br1_0 4.003117 1_555
Br0_4 Br1_5 4.003117 1_554
Br0_5 Ho0_7 2.914315 1_555
Br0_5 Ho0_1 2.914315 1_655
Br0_5 Ho0_4 2.914316 1_556
Br0_5 O0_4 3.310626 1_555
Br0_5 O0_7 3.310626 1_545
Br0_5 O0_1 3.310626 1_555
Br0_5 Br0_6 3.801977 1_546
Br0_5 Br0_6 3.801977 1_555
Br0_5 Br1_7 4.003117 1_545
Br0_5 Br1_1 4.003117 1_555
Br0_5 Br1_4 4.003117 1_555
Br0_6 Ho0_2 2.914315 1_655
Br0_6 Ho0_4 2.914315 1_565
Br0_6 Ho0_7 2.914316 1_555
Br0_6 O0_7 3.310626 1_554
Br0_6 O0_4 3.310626 1_555
Br0_6 O0_2 3.310626 1_555
Br0_6 Br1_4 4.003117 1_555
Br0_6 Br1_2 4.003117 1_555
Br0_6 Br1_7 4.003117 1_554
Br0_7 Ho0_3 2.914315 1_655
Br0_7 Ho0_5 2.914315 1_565
Br0_7 Ho0_6 2.914316 1_556
Br0_7 O0_6 3.310626 1_555
Br0_7 O0_5 3.310626 1_555
Br0_7 O0_3 3.310626 1_555
Br0_7 Br1_3 4.003117 1_555
Br0_7 Br1_5 4.003117 1_555
Br0_7 Br1_6 4.003117 1_555
Br1_0 Ho1_4 2.914315 1_455
Br1_0 Ho1_2 2.914315 1_545
Br1_0 Ho1_1 2.914316 1_554
Br1_0 O1_1 3.310626 1_555
Br1_0 O1_4 3.310626 1_555
Br1_0 O1_2 3.310626 1_555
Br1_0 Br1_3 3.801977 1_554
Br1_0 Br1_5 3.801977 1_554
Br1_0 Br1_5 3.801977 1_455
Br1_0 Br1_3 3.801977 1_545
Br1_0 Br1_6 3.801978 1_455
Br1_0 Br1_6 3.801978 1_545
Br1_1 Ho1_5 2.914315 1_455
Br1_1 Ho1_3 2.914315 1_545
Br1_1 Ho1_0 2.914316 1_555
Br1_1 O1_0 3.310626 1_556
Br1_1 O1_5 3.310626 1_555
Br1_1 O1_3 3.310626 1_555
Br1_1 Br1_4 3.801977 1_456
Br1_1 Br1_2 3.801977 1_546
Br1_1 Br1_2 3.801977 1_555
Br1_1 Br1_4 3.801977 1_555
Br1_1 Br1_7 3.801978 1_545
Br1_1 Br1_7 3.801978 1_455
Br1_2 Ho1_6 2.914315 1_455
Br1_2 Ho1_0 2.914315 1_555
Br1_2 Ho1_3 2.914316 1_554
Br1_2 O1_3 3.310626 1_555
Br1_2 O1_0 3.310626 1_565
Br1_2 O1_6 3.310626 1_555
Br1_2 Br1_7 3.801977 1_554
Br1_2 Br1_7 3.801977 1_455
Br1_2 Br1_4 3.801978 1_465
Br1_2 Br1_4 3.801978 1_555
Br1_3 Ho1_1 2.914315 1_555
Br1_3 Ho1_7 2.914315 1_455
Br1_3 Ho1_2 2.914316 1_555
Br1_3 O1_2 3.310626 1_556
Br1_3 O1_7 3.310626 1_555
Br1_3 O1_1 3.310626 1_565
Br1_3 Br1_6 3.801977 1_456
Br1_3 Br1_6 3.801977 1_555
Br1_3 Br1_5 3.801978 1_465
Br1_3 Br1_5 3.801978 1_555
Br1_4 Ho1_6 2.914315 1_545
Br1_4 Ho1_0 2.914315 1_555
Br1_4 Ho1_5 2.914316 1_554
Br1_4 O1_5 3.310626 1_555
Br1_4 O1_0 3.310626 1_655
Br1_4 O1_6 3.310626 1_555
Br1_4 Br1_7 3.801977 1_554
Br1_4 Br1_7 3.801977 1_545
Br1_5 Ho1_1 2.914315 1_555
Br1_5 Ho1_7 2.914315 1_545
Br1_5 Ho1_4 2.914316 1_555
Br1_5 O1_4 3.310626 1_556
Br1_5 O1_7 3.310626 1_555
Br1_5 O1_1 3.310626 1_655
Br1_5 Br1_6 3.801977 1_546
Br1_5 Br1_6 3.801977 1_555
Br1_6 Ho1_2 2.914315 1_555
Br1_6 Ho1_4 2.914315 1_555
Br1_6 Ho1_7 2.914316 1_554
Br1_6 O1_7 3.310626 1_555
Br1_6 O1_4 3.310626 1_565
Br1_6 O1_2 3.310626 1_655
Br1_7 Ho1_3 2.914315 1_555
Br1_7 Ho1_5 2.914315 1_555
Br1_7 Ho1_6 2.914316 1_555
Br1_7 O1_6 3.310626 1_556
Br1_7 O1_5 3.310626 1_565
Br1_7 O1_3 3.310626 1_655
O0_0 O1_6 2.768905 1_555
O0_0 O1_3 2.768906 1_555
O0_0 O1_5 2.768906 1_555
O0_1 O1_7 2.768905 1_555
O0_1 O1_4 2.768906 1_556
O0_1 O1_2 2.768906 1_556
O0_2 O1_4 2.768905 1_565
O0_2 O1_1 2.768906 1_565
O0_2 O1_7 2.768906 1_555
O0_3 O1_5 2.768905 1_565
O0_3 O1_0 2.768906 1_566
O0_3 O1_6 2.768906 1_556
O0_4 O1_2 2.768905 1_655
O0_4 O1_1 2.768906 1_655
O0_4 O1_7 2.768906 1_555
O0_5 O1_3 2.768905 1_655
O0_5 O1_0 2.768906 1_656
O0_5 O1_6 2.768906 1_556
O0_6 O1_0 2.768905 1_665
O0_6 O1_5 2.768906 1_565
O0_6 O1_3 2.768906 1_655
O0_7 O1_1 2.768905 1_665
O0_7 O1_4 2.768906 1_566
O0_7 O1_2 2.768906 1_656
