# generated using pymatgen
data_Li2FeO3
_symmetry_space_group_name_H-M   'P 1'
_cell_length_a   5.08415049
_cell_length_b   5.08438333
_cell_length_c   9.75680598
_cell_angle_alpha   85.15334885
_cell_angle_beta   94.84725074
_cell_angle_gamma   60.09007165
_symmetry_Int_Tables_number   1
_chemical_formula_structural   Li2FeO3
_chemical_formula_sum   'Li8 Fe4 O12'
_cell_volume   215.48368795
_cell_formula_units_Z   4
loop_
 _symmetry_equiv_pos_site_id
 _symmetry_equiv_pos_as_xyz
  1  'x, y, z'
loop_
 _atom_site_type_symbol
 _atom_site_label
 _atom_site_symmetry_multiplicity
 _atom_site_fract_x
 _atom_site_fract_y
 _atom_site_fract_z
 _atom_site_occupancy
  Li  Li0  1  0.97984100  0.49519000  0.00028000  1
  Li  Li1  1  0.47984100  0.99519000  0.50027400  1
  Li  Li2  1  0.74268600  0.75762800  0.25000400  1
  Li  Li3  1  0.24269000  0.25763000  0.75000300  1
  Li  Li4  1  0.65945700  0.17484700  0.00009700  1
  Li  Li5  1  0.15944600  0.67486100  0.50008700  1
  Li  Li6  1  0.83273300  0.34932300  0.49987300  1
  Li  Li7  1  0.33273300  0.84932500  0.99988100  1
  Fe  Fe0  1  0.57551900  0.59019900  0.75019500  1
  Fe  Fe1  1  0.40890000  0.42361000  0.25011500  1
  Fe  Fe2  1  0.07551000  0.09019400  0.25019500  1
  Fe  Fe3  1  0.90890400  0.92361400  0.75011500  1
  O  O0  1  0.13063700  0.35357400  0.36598200  1
  O  O1  1  0.63064600  0.85357200  0.86598100  1
  O  O2  1  0.33892500  0.14533100  0.13424600  1
  O  O3  1  0.83892300  0.64534000  0.63424900  1
  O  O4  1  0.79860700  0.06793100  0.36451400  1
  O  O5  1  0.29860600  0.56793600  0.86451900  1
  O  O6  1  0.05321200  0.81322800  0.13569100  1
  O  O7  1  0.55321800  0.31323100  0.63569200  1
  O  O8  1  0.72461400  0.42786300  0.13885700  1
  O  O9  1  0.22461800  0.92786600  0.63885300  1
  O  O10  1  0.41339000  0.73912500  0.36149300  1
  O  O11  1  0.91339100  0.23912900  0.86149900  1
loop_
_geom_bond_atom_site_label_1
_geom_bond_atom_site_label_2
_geom_bond_distance
_geom_bond_site_symmetry_2
Li0 O1 2.041161 1_554
Li0 O2 2.042257 1_655
Li0 O8 2.071315 1_555
Li0 O11 2.074080 1_554
Li0 O6 2.319204 1_655
Li0 O5 2.322855 1_654
Li1 O0 2.041149 1_565
Li1 O3 2.042279 1_555
Li1 O9 2.071307 1_555
Li1 O10 2.074098 1_555
Li1 O7 2.319273 1_565
Li1 O4 2.322841 1_565
Li2 O8 2.107047 1_555
Li2 O10 2.107741 1_555
Li2 O6 2.122675 1_655
Li2 O4 2.123612 1_565
Li2 O2 2.138168 1_565
Li2 O0 2.140149 1_655
Li3 O9 2.107060 1_545
Li3 O11 2.107790 1_455
Li3 O7 2.122675 1_555
Li3 O5 2.123647 1_555
Li3 O3 2.138181 1_455
Li3 O1 2.140169 1_545
Li4 O8 2.059384 1_555
Li4 O11 2.059955 1_554
Li4 O5 2.143951 1_554
Li4 O6 2.146869 1_645
Li4 O2 2.227673 1_555
Li4 O1 2.229223 1_544
Li5 O9 2.059414 1_555
Li5 O10 2.059928 1_555
Li5 O4 2.143864 1_465
Li5 O7 2.146977 1_555
Li5 O3 2.227727 1_455
Li5 O0 2.229199 1_555
Li6 O7 2.084819 1_555
Li6 O4 2.085499 1_555
Li6 O3 2.087784 1_555
Li6 O0 2.088839 1_655
Li6 O10 2.267979 1_555
Li6 O9 2.279218 1_645
Li7 O6 2.084792 1_556
Li7 O5 2.085509 1_555
Li7 O2 2.087670 1_566
Li7 O1 2.088928 1_555
Li7 O11 2.267989 1_465
Li7 O8 2.279205 1_556
Fe0 O9 1.900840 1_555
Fe0 O11 1.901473 1_555
Fe0 O5 1.908426 1_555
Fe0 O7 1.909890 1_555
Fe0 O1 1.929856 1_555
Fe0 O3 1.930968 1_555
Fe1 O8 2.020002 1_555
Fe1 O10 2.020342 1_555
Fe1 O2 2.027513 1_555
Fe1 O0 2.027545 1_555
Fe1 O6 2.037977 1_555
Fe1 O4 2.038069 1_555
Fe2 O8 1.900816 1_455
Fe2 O10 1.901462 1_545
Fe2 O4 1.908353 1_455
Fe2 O6 1.909882 1_545
Fe2 O0 1.929891 1_555
Fe2 O2 1.931023 1_555
Fe3 O9 2.020024 1_655
Fe3 O11 2.020372 1_565
Fe3 O3 2.027488 1_555
Fe3 O1 2.027532 1_555
Fe3 O7 2.037967 1_565
Fe3 O5 2.038074 1_655
