# generated using pymatgen
data_Fe6O5F7
_symmetry_space_group_name_H-M   'P 1'
_cell_length_a   5.68210211
_cell_length_b   5.68210211
_cell_length_c   7.40481740
_cell_angle_alpha   72.09975975
_cell_angle_beta   72.09975975
_cell_angle_gamma   72.12908418
_symmetry_Int_Tables_number   1
_chemical_formula_structural   Fe6O5F7
_chemical_formula_sum   'Fe6 O5 F7'
_cell_volume   210.44879469
_cell_formula_units_Z   1
loop_
 _symmetry_equiv_pos_site_id
 _symmetry_equiv_pos_as_xyz
  1  'x, y, z'
loop_
 _atom_site_type_symbol
 _atom_site_label
 _atom_site_symmetry_multiplicity
 _atom_site_fract_x
 _atom_site_fract_y
 _atom_site_fract_z
 _atom_site_occupancy
  Fe  Fe0  1  0.30432700  0.30432700  0.16415200  1
  Fe  Fe1  1  0.66187900  0.66187900  0.33198600  1
  Fe  Fe2  1  0.35501000  0.35501000  0.68378000  1
  Fe  Fe3  1  0.67129700  0.67129700  0.83781900  1
  Fe  Fe4  1  0.01960900  0.01960900  0.48395800  1
  Fe  Fe5  1  0.99168600  0.99168600  0.00046400  1
  O  O0  1  0.96658700  0.36181700  0.33304400  1
  O  O1  1  0.77555900  0.77555900  0.04042000  1
  O  O2  1  0.22198000  0.22198000  0.95678800  1
  O  O3  1  0.57094000  0.57094000  0.62571300  1
  O  O4  1  0.36181700  0.96658700  0.33304400  1
  F  F0  1  0.65075300  0.04923800  0.65030600  1
  F  F1  1  0.10001900  0.10001900  0.70296800  1
  F  F2  1  0.42632300  0.42632300  0.37522900  1
  F  F3  1  0.90085100  0.90085100  0.30098900  1
  F  F4  1  0.04923800  0.65075300  0.65030600  1
  F  F5  1  0.68218400  0.28994400  0.01451800  1
  F  F6  1  0.28994400  0.68218400  0.01451800  1
loop_
_geom_bond_atom_site_label_1
_geom_bond_atom_site_label_2
_geom_bond_distance
_geom_bond_site_symmetry_2
Fe0 O0 1.935103 1_455
Fe0 O4 1.935103 1_545
Fe0 O2 1.952763 1_554
Fe1 O1 2.009291 1_555
Fe1 O3 2.011653 1_555
Fe1 O0 2.023134 1_555
Fe1 O4 2.023134 1_555
Fe2 O3 1.863048 1_555
Fe2 O2 1.923924 1_555
Fe3 O1 2.064149 1_556
Fe3 O3 2.101865 1_555
Fe4 O4 1.905822 1_545
Fe4 O0 1.905822 1_455
Fe5 O1 1.892796 1_555
Fe5 O2 2.014906 1_664
F0 Fe2 2.029960 1_555
F0 Fe4 2.064519 1_655
F0 Fe3 2.160119 1_545
F0 F2 2.757350 1_555
F0 F3 2.786879 1_545
F0 F1 2.808052 1_655
F1 Fe4 2.021537 1_555
F1 Fe5 2.043532 1_446
F1 Fe2 2.292170 1_555
F1 O2 2.527655 1_555
F1 F4 2.808052 1_545
F2 Fe1 2.063500 1_555
F2 Fe2 2.123931 1_555
F2 Fe0 2.242971 1_555
F2 F4 2.757350 1_555
F2 F5 2.835876 1_555
F2 F6 2.835876 1_555
F2 O4 2.866269 1_545
F2 O0 2.866269 1_455
F3 Fe4 2.037107 1_665
F3 Fe5 2.058226 1_555
F3 Fe1 2.118659 1_555
F3 F4 2.786879 1_655
F3 F6 2.825380 1_655
F3 F5 2.825380 1_565
F4 Fe2 2.029960 1_555
F4 Fe4 2.064519 1_565
F4 Fe3 2.160119 1_455
F5 Fe5 2.035290 1_545
F5 Fe0 2.080786 1_555
F5 Fe3 2.153096 1_554
F5 F6 2.624111 1_555
F5 O1 2.761733 1_545
F6 Fe5 2.035290 1_455
F6 Fe0 2.080786 1_555
F6 Fe3 2.153096 1_554
F6 O1 2.761733 1_455
