# generated using pymatgen
data_Na6U5V2O23
_symmetry_space_group_name_H-M   'P 1'
_cell_length_a   24.57190700
_cell_length_b   7.10854200
_cell_length_c   12.79931142
_cell_angle_alpha   79.42676208
_cell_angle_beta   90.00000000
_cell_angle_gamma   90.00000000
_symmetry_Int_Tables_number   1
_chemical_formula_structural   Na6U5V2O23
_chemical_formula_sum   'Na24 U20 V8 O92'
_cell_volume   2197.70233910
_cell_formula_units_Z   4
loop_
 _symmetry_equiv_pos_site_id
 _symmetry_equiv_pos_as_xyz
  1  'x, y, z'
loop_
 _atom_site_type_symbol
 _atom_site_label
 _atom_site_symmetry_multiplicity
 _atom_site_fract_x
 _atom_site_fract_y
 _atom_site_fract_z
 _atom_site_occupancy
  Na  Na0  1  0.53842400  0.27166300  0.97756200  1
  Na  Na1  1  0.46592800  0.73784600  0.52448900  1
  Na  Na2  1  0.79447300  0.76992400  0.88598400  1
  Na  Na3  1  0.30941800  0.75079200  0.62303500  1
  Na  Na4  1  0.62245200  0.78507200  0.92330800  1
  Na  Na5  1  0.19058200  0.25079200  0.62303500  1
  Na  Na6  1  0.20552700  0.23007600  0.11401600  1
  Na  Na7  1  0.70552700  0.26992400  0.88598400  1
  Na  Na8  1  0.37754800  0.21492800  0.07669200  1
  Na  Na9  1  0.03842400  0.22833700  0.02243800  1
  Na  Na10  1  0.03407200  0.23784600  0.52448900  1
  Na  Na11  1  0.96592800  0.76215400  0.47551100  1
  Na  Na12  1  0.29447300  0.73007600  0.11401600  1
  Na  Na13  1  0.89995900  0.25810400  0.42609300  1
  Na  Na14  1  0.87754800  0.28507200  0.92330800  1
  Na  Na15  1  0.39995900  0.24189600  0.57390700  1
  Na  Na16  1  0.80941800  0.74920800  0.37696500  1
  Na  Na17  1  0.10004100  0.74189600  0.57390700  1
  Na  Na18  1  0.46157600  0.72833700  0.02243800  1
  Na  Na19  1  0.53407200  0.26215400  0.47551100  1
  Na  Na20  1  0.69058200  0.24920800  0.37696500  1
  Na  Na21  1  0.12245200  0.71492800  0.07669200  1
  Na  Na22  1  0.60004100  0.75810400  0.42609300  1
  Na  Na23  1  0.96157600  0.77166300  0.97756200  1
  U  U0  1  0.92656400  0.02271600  0.18685600  1
  U  U1  1  0.85252600  0.52733900  0.65360300  1
  U  U2  1  0.41218900  0.48771100  0.29190300  1
  U  U3  1  0.42656400  0.47728400  0.81314400  1
  U  U4  1  0.85964300  0.53771100  0.16576500  1
  U  U5  1  0.35252600  0.97266100  0.34639700  1
  U  U6  1  0.57343600  0.52271600  0.18685600  1
  U  U7  1  0.14747400  0.47266100  0.34639700  1
  U  U8  1  0.07343600  0.97728400  0.81314400  1
  U  U9  1  0.00727700  0.48943800  0.23723800  1
  U  U10  1  0.50727700  0.01056200  0.76276200  1
  U  U11  1  0.49272300  0.98943800  0.23723800  1
  U  U12  1  0.64035700  0.03771100  0.16576500  1
  U  U13  1  0.64747400  0.02733900  0.65360300  1
  U  U14  1  0.99272300  0.51056200  0.76276200  1
  U  U15  1  0.08781100  0.98771100  0.29190300  1
  U  U16  1  0.14035700  0.46228900  0.83423500  1
  U  U17  1  0.35964300  0.96228900  0.83423500  1
  U  U18  1  0.91218900  0.01228900  0.70809700  1
  U  U19  1  0.58781100  0.51228900  0.70809700  1
  V  V0  1  0.29490500  0.45180600  0.89121100  1
  V  V1  1  0.79490500  0.04819400  0.10878900  1
  V  V2  1  0.20065400  0.95040300  0.43900900  1
  V  V3  1  0.70509500  0.54819400  0.10878900  1
  V  V4  1  0.70065400  0.54959700  0.56099100  1
  V  V5  1  0.79934600  0.04959700  0.56099100  1
  V  V6  1  0.20509500  0.95180600  0.89121100  1
  V  V7  1  0.29934600  0.45040300  0.43900900  1
  O  O0  1  0.06341400  0.92995700  0.96116700  1
  O  O1  1  0.57919000  0.19482100  0.71013800  1
  O  O2  1  0.38428600  0.91292900  0.48057500  1
  O  O3  1  0.53206200  0.97497600  0.90325800  1
  O  O4  1  0.98418500  0.45068200  0.38042100  1
  O  O5  1  0.51299600  0.43829500  0.79525400  1
  O  O6  1  0.27092400  0.92402400  0.43154100  1
  O  O7  1  0.64957800  0.98883900  0.31236400  1
  O  O8  1  0.42081000  0.80517900  0.28986200  1
  O  O9  1  0.56796400  0.83644800  0.19818300  1
  O  O10  1  0.18073100  0.52907800  0.21266400  1
  O  O11  1  0.77092400  0.57597600  0.56845900  1
  O  O12  1  0.35042200  0.01116100  0.68763600  1
  O  O13  1  0.71797900  0.55271500  0.97889800  1
  O  O14  1  0.17211800  0.14863100  0.35318500  1
  O  O15  1  0.93658600  0.07004300  0.03883300  1
  O  O16  1  0.55844500  0.20938000  0.18274900  1
  O  O17  1  0.32788200  0.64863100  0.35318500  1
  O  O18  1  0.01581500  0.54931800  0.61957900  1
  O  O19  1  0.16109800  0.14249700  0.82895900  1
  O  O20  1  0.22907600  0.42402400  0.43154100  1
  O  O21  1  0.05187000  0.94144300  0.42517900  1
  O  O22  1  0.92081000  0.69482100  0.71013800  1
  O  O23  1  0.94155500  0.70938000  0.18274900  1
  O  O24  1  0.66037800  0.72640900  0.60687500  1
  O  O25  1  0.18572700  0.95507600  0.56618300  1
  O  O26  1  0.33853900  0.26222700  0.87563100  1
  O  O27  1  0.16146100  0.76222700  0.87563100  1
  O  O28  1  0.73433300  0.05254100  0.17608800  1
  O  O29  1  0.33890200  0.64249700  0.82895900  1
  O  O30  1  0.57599000  0.82089000  0.72636000  1
  O  O31  1  0.03206200  0.52502400  0.09674200  1
  O  O32  1  0.14957800  0.51116100  0.68763600  1
  O  O33  1  0.16037800  0.77359100  0.39312500  1
  O  O34  1  0.07599000  0.67911000  0.27364000  1
  O  O35  1  0.43203600  0.16355200  0.80181700  1
  O  O36  1  0.61571400  0.08707100  0.51942500  1
  O  O37  1  0.11571400  0.41292900  0.48057500  1
  O  O38  1  0.83962200  0.22640900  0.60687500  1
  O  O39  1  0.06796400  0.66355200  0.80181700  1
  O  O40  1  0.86589700  0.60522600  0.01858400  1
  O  O41  1  0.07919000  0.30517900  0.28986200  1
  O  O42  1  0.41645200  0.53145500  0.66578700  1
  O  O43  1  0.26566700  0.94745900  0.82391200  1
  O  O44  1  0.83890200  0.85750300  0.17104100  1
  O  O45  1  0.46793800  0.02502400  0.09674200  1
  O  O46  1  0.78202100  0.05271500  0.97889800  1
  O  O47  1  0.76566700  0.55254100  0.17608800  1
  O  O48  1  0.44813000  0.44144300  0.42517900  1
  O  O49  1  0.36589700  0.89477400  0.98141600  1
  O  O50  1  0.68572700  0.54492400  0.43381700  1
  O  O51  1  0.12653200  0.02500500  0.16466700  1
  O  O52  1  0.58354800  0.46854500  0.33421300  1
  O  O53  1  0.98700400  0.93829500  0.79525400  1
  O  O54  1  0.66109800  0.35750300  0.17104100  1
  O  O55  1  0.05844500  0.29062000  0.81725100  1
  O  O56  1  0.51581500  0.95068200  0.38042100  1
  O  O57  1  0.81926900  0.47092200  0.78733600  1
  O  O58  1  0.56341400  0.57004300  0.03883300  1
  O  O59  1  0.87346800  0.97499500  0.83533300  1
  O  O60  1  0.43658600  0.42995700  0.96116700  1
  O  O61  1  0.44155500  0.79062000  0.81725100  1
  O  O62  1  0.01299600  0.06170500  0.20474600  1
  O  O63  1  0.66146100  0.73777300  0.12436900  1
  O  O64  1  0.83853900  0.23777300  0.12436900  1
  O  O65  1  0.62653200  0.47499500  0.83533300  1
  O  O66  1  0.81427300  0.04492400  0.43381700  1
  O  O67  1  0.37346800  0.52500500  0.16466700  1
  O  O68  1  0.48418500  0.04931800  0.61957900  1
  O  O69  1  0.28202100  0.44728500  0.02110200  1
  O  O70  1  0.96793800  0.47497600  0.90325800  1
  O  O71  1  0.33962200  0.27359100  0.39312500  1
  O  O72  1  0.67211800  0.35136900  0.64681500  1
  O  O73  1  0.23433300  0.44745900  0.82391200  1
  O  O74  1  0.94813000  0.05855700  0.57482100  1
  O  O75  1  0.08354800  0.03145500  0.66578700  1
  O  O76  1  0.91645200  0.96854500  0.33421300  1
  O  O77  1  0.63410300  0.10522600  0.01858400  1
  O  O78  1  0.88428600  0.58707100  0.51942500  1
  O  O79  1  0.82788200  0.85136900  0.64681500  1
  O  O80  1  0.42401000  0.17911000  0.27364000  1
  O  O81  1  0.93203600  0.33644800  0.19818300  1
  O  O82  1  0.92401000  0.32089000  0.72636000  1
  O  O83  1  0.68073100  0.97092200  0.78733600  1
  O  O84  1  0.85042200  0.48883900  0.31236400  1
  O  O85  1  0.48700400  0.56170500  0.20474600  1
  O  O86  1  0.31926900  0.02907800  0.21266400  1
  O  O87  1  0.21797900  0.94728500  0.02110200  1
  O  O88  1  0.13410300  0.39477400  0.98141600  1
  O  O89  1  0.72907600  0.07597600  0.56845900  1
  O  O90  1  0.31427300  0.45507600  0.56618300  1
  O  O91  1  0.55187000  0.55855700  0.57482100  1
loop_
_geom_bond_atom_site_label_1
_geom_bond_atom_site_label_2
_geom_bond_distance
_geom_bond_site_symmetry_2
Na0 O58 2.470090 1_556
Na0 O3 2.472434 1_545
Na0 O5 2.494787 1_555
Na0 O16 2.628408 1_556
Na0 O77 2.640978 1_556
Na0 O45 2.723791 1_556
Na0 O60 2.735931 1_555
Na0 O65 3.020705 1_555
Na1 O2 2.373316 1_555
Na1 O42 2.434639 1_555
Na1 O56 2.483558 1_555
Na1 O91 2.489485 1_555
Na1 O48 2.688723 1_555
Na1 O68 2.752050 1_565
Na2 O59 2.442586 1_555
Na2 O46 2.535006 1_565
Na2 O40 2.569444 1_556
Na2 O13 2.580190 1_555
Na2 O57 2.732752 1_555
Na2 O79 3.119236 1_555
Na2 O83 3.284034 1_555
Na3 O90 2.350308 1_555
Na3 O12 2.384549 1_565
Na3 O2 2.695591 1_555
Na3 O6 2.703850 1_555
Na3 O29 2.705497 1_555
Na3 O42 3.055221 1_555
Na4 O58 2.407870 1_556
Na4 O83 2.445629 1_555
Na4 O3 2.587305 1_555
Na4 O65 2.654673 1_555
Na4 O63 2.708669 1_556
Na4 O30 2.736257 1_555
Na4 O77 2.786924 1_566
Na4 O13 2.883204 1_555
Na5 O25 2.350308 1_545
Na5 O32 2.384549 1_555
Na5 O37 2.695591 1_555
Na5 O20 2.703850 1_555
Na5 O19 2.705497 1_555
Na5 O75 3.055221 1_555
Na6 O51 2.442586 1_555
Na6 O87 2.535006 1_545
Na6 O88 2.569444 1_554
Na6 O69 2.580190 1_555
Na6 O10 2.732752 1_555
Na6 O14 3.119236 1_555
Na6 O86 3.284034 1_555
Na7 O65 2.442586 1_555
Na7 O13 2.535006 1_555
Na7 O77 2.569444 1_556
Na7 O46 2.580190 1_555
Na7 O83 2.732752 1_545
Na7 O72 3.119236 1_555
Na7 O57 3.284034 1_555
Na8 O60 2.407870 1_554
Na8 O86 2.445629 1_555
Na8 O45 2.587305 1_555
Na8 O67 2.654673 1_555
Na8 O26 2.708669 1_554
Na8 O80 2.736257 1_555
Na8 O49 2.786924 1_544
Na8 O69 2.883204 1_555
Na9 O0 2.470090 1_544
Na9 O31 2.472434 1_555
Na9 O62 2.494787 1_555
Na9 O55 2.628408 1_554
Na9 O88 2.640978 1_554
Na9 O70 2.723791 1_454
Na9 O15 2.735931 1_455
Na9 O51 3.020705 1_555
Na10 O37 2.373316 1_555
Na10 O75 2.434639 1_555
Na10 O4 2.483558 1_455
Na10 O74 2.489485 1_455
Na10 O21 2.688723 1_545
Na10 O18 2.752050 1_555
Na11 O78 2.373316 1_555
Na11 O76 2.434639 1_555
Na11 O18 2.483558 1_655
Na11 O21 2.489485 1_655
Na11 O74 2.688723 1_565
Na11 O4 2.752050 1_555
Na12 O67 2.442586 1_555
Na12 O69 2.535006 1_555
Na12 O49 2.569444 1_554
Na12 O87 2.580190 1_555
Na12 O86 2.732752 1_565
Na12 O17 3.119236 1_555
Na12 O10 3.284034 1_555
Na13 O84 2.326924 1_555
Na13 O74 2.458850 1_555
Na13 O4 2.491040 1_555
Na13 O76 2.583083 1_545
Na13 O66 2.585387 1_555
Na13 O38 2.722424 1_555
Na13 O78 2.840597 1_555
Na13 O81 2.973992 1_555
Na14 O15 2.407870 1_556
Na14 O57 2.445629 1_555
Na14 O70 2.587305 1_555
Na14 O59 2.654673 1_545
Na14 O64 2.708669 1_556
Na14 O82 2.736257 1_555
Na14 O40 2.786924 1_556
Na14 O46 2.883204 1_555
Na15 O12 2.326924 1_555
Na15 O48 2.458850 1_555
Na15 O68 2.491040 1_555
Na15 O42 2.583083 1_555
Na15 O90 2.585387 1_555
Na15 O71 2.722424 1_555
Na15 O2 2.840597 1_545
Na15 O35 2.973992 1_555
Na16 O66 2.350308 1_565
Na16 O84 2.384549 1_555
Na16 O78 2.695591 1_555
Na16 O11 2.703850 1_555
Na16 O44 2.705497 1_555
Na16 O76 3.055221 1_555
Na17 O32 2.326924 1_555
Na17 O21 2.458850 1_555
Na17 O18 2.491040 1_555
Na17 O75 2.583083 1_565
Na17 O25 2.585387 1_555
Na17 O33 2.722424 1_555
Na17 O37 2.840597 1_555
Na17 O39 2.973992 1_555
Na18 O60 2.470090 1_554
Na18 O45 2.472434 1_565
Na18 O85 2.494787 1_555
Na18 O61 2.628408 1_554
Na18 O49 2.640978 1_554
Na18 O3 2.723791 1_554
Na18 O58 2.735931 1_555
Na18 O67 3.020705 1_555
Na19 O36 2.373316 1_555
Na19 O52 2.434639 1_555
Na19 O68 2.483558 1_555
Na19 O48 2.489485 1_555
Na19 O91 2.688723 1_555
Na19 O56 2.752050 1_545
Na20 O50 2.350308 1_555
Na20 O7 2.384549 1_545
Na20 O36 2.695591 1_555
Na20 O89 2.703850 1_555
Na20 O54 2.705497 1_555
Na20 O52 3.055221 1_555
Na21 O0 2.407870 1_554
Na21 O10 2.445629 1_555
Na21 O31 2.587305 1_555
Na21 O51 2.654673 1_565
Na21 O27 2.708669 1_554
Na21 O34 2.736257 1_555
Na21 O88 2.786924 1_554
Na21 O87 2.883204 1_555
Na22 O7 2.326924 1_555
Na22 O91 2.458850 1_555
Na22 O56 2.491040 1_555
Na22 O52 2.583083 1_555
Na22 O50 2.585387 1_555
Na22 O24 2.722424 1_555
Na22 O36 2.840597 1_565
Na22 O9 2.973992 1_555
Na23 O15 2.470090 1_566
Na23 O70 2.472434 1_555
Na23 O53 2.494787 1_555
Na23 O23 2.628408 1_556
Na23 O40 2.640978 1_556
Na23 O31 2.723791 1_656
Na23 O0 2.735931 1_655
Na23 O59 3.020705 1_555
O0 U8 1.878668 1_555
O0 O53 2.827019 1_455
O0 O55 2.871910 1_565
O0 O39 3.029207 1_555
O1 U10 2.228889 1_555
O1 U13 2.252204 1_555
O1 U19 2.262028 1_555
O1 O72 2.603514 1_555
O1 O30 2.629120 1_545
O1 O5 2.742231 1_555
O1 O36 2.834909 1_555
O1 O68 2.881483 1_555
O1 O3 2.911269 1_545
O1 O91 2.914174 1_555
O1 O65 3.009772 1_555
O1 O83 3.026162 1_545
O2 U5 1.863096 1_555
O2 O8 2.834909 1_555
O3 U10 1.871273 1_565
O3 O30 2.898523 1_555
O3 O61 2.899057 1_555
O3 O35 2.980758 1_565
O4 U9 1.889750 1_655
O4 O41 2.881483 1_655
O4 O81 2.904677 1_555
O5 U3 2.159412 1_555
O5 U19 2.164556 1_555
O5 O60 2.827019 1_555
O5 O65 2.857147 1_555
O5 O91 2.952684 1_555
O5 O61 3.113234 1_555
O6 V2 1.741338 1_555
O6 U5 2.278022 1_555
O7 U12 1.858375 1_565
O7 O9 2.812820 1_555
O8 U11 2.228889 1_555
O8 U5 2.252204 1_555
O8 U2 2.262028 1_555
O8 O80 2.629120 1_565
O8 O85 2.742231 1_555
O8 O86 3.026162 1_565
O9 U11 2.247272 1_555
O9 U6 2.265269 1_555
O9 U12 2.272757 1_565
O10 U7 1.872590 1_555
O10 O41 3.026162 1_555
O11 V4 1.741338 1_555
O11 U1 2.278022 1_555
O12 U17 1.858375 1_545
O12 O35 2.812820 1_555
O12 O61 3.044674 1_545
O13 V3 1.686893 1_556
O14 V2 1.765185 1_545
O14 U7 2.367776 1_555
O14 U15 2.558220 1_545
O14 O41 2.603514 1_555
O15 U0 1.878668 1_555
O15 O62 2.827019 1_655
O15 O23 2.871910 1_545
O15 O81 3.029207 1_555
O16 U11 2.266852 1_545
O16 U6 2.267722 1_555
O16 U12 2.384298 1_555
O16 O9 2.632368 1_545
O16 O54 2.726835 1_555
O16 O58 2.871910 1_555
O16 O45 2.899057 1_555
O16 O52 2.973801 1_555
O16 O56 3.028665 1_545
O16 O7 3.044674 1_545
O16 O85 3.113234 1_555
O17 V7 1.765185 1_555
O17 U5 2.367776 1_555
O17 U2 2.558220 1_555
O17 O8 2.603514 1_555
O18 U14 1.889750 1_455
O18 O22 2.881483 1_455
O18 O39 2.904677 1_555
O18 O82 2.962926 1_455
O18 O55 3.028665 1_555
O19 V6 1.801312 1_545
O19 U16 2.342717 1_555
O19 U8 2.479375 1_545
O19 O55 2.726835 1_555
O20 V7 1.741338 1_555
O20 U7 2.278022 1_555
O21 U15 1.895285 1_555
O21 O41 2.914174 1_565
O21 O62 2.952684 1_565
O21 O34 2.986329 1_555
O22 U14 2.228889 1_555
O22 U1 2.252204 1_555
O22 U18 2.262028 1_565
O22 O79 2.603514 1_555
O22 O82 2.629120 1_555
O22 O53 2.742231 1_555
O22 O78 2.834909 1_555
O22 O70 2.911269 1_555
O22 O74 2.914174 1_565
O22 O59 3.009772 1_555
O22 O57 3.026162 1_555
O23 U9 2.266852 1_655
O23 U0 2.267722 1_565
O23 U4 2.384298 1_555
O23 O81 2.632368 1_555
O23 O44 2.726835 1_555
O23 O31 2.899057 1_655
O23 O76 2.973801 1_555
O23 O4 3.028665 1_555
O23 O84 3.044674 1_555
O23 O62 3.113234 1_665
O24 V4 1.781838 1_555
O24 U13 2.346025 1_565
O24 U19 2.539889 1_555
O24 O30 2.732501 1_555
O25 V2 1.674818 1_555
O26 V0 1.761830 1_555
O26 U17 2.347373 1_545
O26 O35 2.627897 1_555
O27 V6 1.761830 1_555
O27 U16 2.347373 1_555
O27 O39 2.627897 1_555
O28 V1 1.722772 1_555
O28 U12 2.316451 1_555
O29 V0 1.801312 1_555
O29 U17 2.342717 1_555
O29 U3 2.479375 1_555
O29 O61 2.726835 1_555
O30 U10 2.261910 1_565
O30 U19 2.267053 1_555
O30 U13 2.367417 1_565
O30 O65 2.876618 1_555
O30 O68 2.962926 1_565
O30 O91 2.986329 1_555
O30 O5 3.112897 1_555
O31 U9 1.871273 1_555
O31 O34 2.898523 1_555
O31 O41 2.911269 1_555
O31 O81 2.980758 1_455
O32 U16 1.858375 1_555
O32 O39 2.812820 1_555
O32 O55 3.044674 1_555
O33 V2 1.781838 1_555
O33 U7 2.346025 1_555
O33 U15 2.539889 1_555
O33 O34 2.732501 1_555
O34 U9 2.261910 1_555
O34 U15 2.267053 1_555
O34 U7 2.367417 1_555
O34 O41 2.629120 1_555
O34 O51 2.876618 1_565
O34 O4 2.962926 1_455
O34 O62 3.112897 1_565
O35 U10 2.247272 1_555
O35 U3 2.265269 1_555
O35 U17 2.272757 1_545
O35 O61 2.632368 1_545
O35 O5 2.778241 1_555
O35 O42 2.889041 1_555
O35 O68 2.904677 1_555
O35 O60 3.029207 1_555
O36 U13 1.863096 1_555
O37 U7 1.863096 1_555
O37 O41 2.834909 1_555
O38 V5 1.781838 1_555
O38 U1 2.346025 1_555
O38 U18 2.539889 1_555
O38 O82 2.732501 1_555
O39 U14 2.247272 1_455
O39 U8 2.265269 1_555
O39 U16 2.272757 1_555
O39 O55 2.632368 1_555
O39 O53 2.778241 1_455
O39 O75 2.889041 1_565
O39 O70 2.980758 1_455
O40 U4 1.863040 1_555
O41 U9 2.228889 1_555
O41 U7 2.252204 1_555
O41 U15 2.262028 1_545
O41 O62 2.742231 1_555
O41 O51 3.009772 1_555
O42 U3 1.871027 1_555
O42 O5 2.899903 1_555
O42 O61 2.973801 1_555
O43 V6 1.722772 1_555
O43 U17 2.316451 1_555
O44 V1 1.801312 1_565
O44 U4 2.342717 1_555
O44 U0 2.479375 1_565
O45 U11 1.871273 1_545
O45 O80 2.898523 1_555
O45 O8 2.911269 1_545
O45 O9 2.980758 1_545
O46 V1 1.686893 1_556
O47 V3 1.722772 1_555
O47 U4 2.316451 1_555
O48 U2 1.895285 1_555
O48 O8 2.914174 1_555
O48 O85 2.952684 1_555
O48 O80 2.986329 1_555
O49 U17 1.863040 1_555
O50 V4 1.674818 1_555
O51 U15 1.862583 1_545
O51 O62 2.857147 1_555
O52 U6 1.871027 1_555
O52 O9 2.889041 1_555
O52 O85 2.899903 1_555
O53 U8 2.159412 1_655
O53 U18 2.164556 1_565
O53 O59 2.857147 1_555
O53 O75 2.899903 1_665
O53 O74 2.952684 1_565
O53 O82 3.112897 1_565
O53 O55 3.113234 1_665
O54 V3 1.801312 1_555
O54 U12 2.342717 1_555
O54 U6 2.479375 1_555
O55 U14 2.266852 1_455
O55 U8 2.267722 1_545
O55 U16 2.384298 1_555
O55 O70 2.899057 1_455
O55 O75 2.973801 1_555
O56 U11 1.889750 1_555
O56 O8 2.881483 1_555
O56 O9 2.904677 1_555
O56 O80 2.962926 1_565
O57 U1 1.872590 1_555
O58 U6 1.878668 1_555
O58 O85 2.827019 1_555
O58 O9 3.029207 1_555
O59 U18 1.862583 1_565
O59 O82 2.876618 1_565
O60 U3 1.878668 1_555
O60 O61 2.871910 1_555
O61 U10 2.266852 1_565
O61 U3 2.267722 1_555
O61 U17 2.384298 1_555
O61 O68 3.028665 1_565
O62 U0 2.159412 1_455
O62 U15 2.164556 1_545
O62 O81 2.778241 1_455
O62 O76 2.899903 1_445
O63 V3 1.761830 1_555
O63 U12 2.347373 1_565
O63 O9 2.627897 1_555
O64 V1 1.761830 1_555
O64 U4 2.347373 1_555
O64 O81 2.627897 1_555
O65 U19 1.862583 1_555
O66 V5 1.674818 1_555
O67 U2 1.862583 1_555
O67 O85 2.857147 1_555
O67 O80 2.876618 1_555
O67 O8 3.009772 1_555
O68 U10 1.889750 1_555
O69 V0 1.686893 1_554
O70 U14 1.871273 1_555
O70 O82 2.898523 1_555
O71 V7 1.781838 1_555
O71 U5 2.346025 1_545
O71 U2 2.539889 1_555
O71 O80 2.732501 1_555
O72 V4 1.765185 1_555
O72 U13 2.367776 1_555
O72 U19 2.558220 1_555
O73 V0 1.722772 1_555
O73 U16 2.316451 1_555
O74 U18 1.895285 1_555
O74 O82 2.986329 1_555
O75 U8 1.871027 1_545
O76 U0 1.871027 1_565
O76 O81 2.889041 1_565
O77 U12 1.863040 1_555
O78 U1 1.863096 1_555
O79 V5 1.765185 1_565
O79 U1 2.367776 1_555
O79 U18 2.558220 1_565
O80 U11 2.261910 1_545
O80 U2 2.267053 1_555
O80 U5 2.367417 1_545
O80 O85 3.112897 1_555
O81 U9 2.247272 1_655
O81 U0 2.265269 1_555
O81 U4 2.272757 1_555
O81 O84 2.812820 1_555
O82 U14 2.261910 1_555
O82 U18 2.267053 1_555
O82 U1 2.367417 1_555
O83 U13 1.872590 1_565
O84 U4 1.858375 1_555
O85 U6 2.159412 1_555
O85 U2 2.164556 1_555
O85 O9 2.778241 1_555
O86 U5 1.872590 1_545
O87 V6 1.686893 1_554
O88 U16 1.863040 1_555
O89 V5 1.741338 1_555
O89 U13 2.278022 1_555
O90 V7 1.674818 1_555
O91 U19 1.895285 1_555
