# generated using pymatgen
data_Ti(SO4)2
_symmetry_space_group_name_H-M   'P 1'
_cell_length_a   9.12525600
_cell_length_b   9.18215800
_cell_length_c   13.53200200
_cell_angle_alpha   90.00000000
_cell_angle_beta   90.00000000
_cell_angle_gamma   90.00000000
_symmetry_Int_Tables_number   1
_chemical_formula_structural   Ti(SO4)2
_chemical_formula_sum   'Ti8 S16 O64'
_cell_volume   1133.84025510
_cell_formula_units_Z   8
loop_
 _symmetry_equiv_pos_site_id
 _symmetry_equiv_pos_as_xyz
  1  'x, y, z'
loop_
 _atom_site_type_symbol
 _atom_site_label
 _atom_site_symmetry_multiplicity
 _atom_site_fract_x
 _atom_site_fract_y
 _atom_site_fract_z
 _atom_site_occupancy
  Ti  Ti0  1  0.89137500  0.85557900  0.12669100  1
  Ti  Ti1  1  0.60862500  0.85557900  0.62669100  1
  Ti  Ti2  1  0.39137500  0.64442100  0.12669100  1
  Ti  Ti3  1  0.10862500  0.64442100  0.62669100  1
  Ti  Ti4  1  0.89137500  0.35557900  0.37330900  1
  Ti  Ti5  1  0.60862500  0.35557900  0.87330900  1
  Ti  Ti6  1  0.39137500  0.14442100  0.37330900  1
  Ti  Ti7  1  0.10862500  0.14442100  0.87330900  1
  S  S0  1  0.93718600  0.92709200  0.71711300  1
  S  S1  1  0.56281400  0.92709200  0.21711300  1
  S  S2  1  0.31464100  0.84096600  0.48449300  1
  S  S3  1  0.18535900  0.84096600  0.98449300  1
  S  S4  1  0.81464100  0.65903400  0.48449300  1
  S  S5  1  0.68535900  0.65903400  0.98449300  1
  S  S6  1  0.06281400  0.57290800  0.21711300  1
  S  S7  1  0.43718600  0.57290800  0.71711300  1
  S  S8  1  0.56281400  0.42709200  0.28288700  1
  S  S9  1  0.93718600  0.42709200  0.78288700  1
  S  S10  1  0.31464100  0.34096600  0.01550700  1
  S  S11  1  0.18535900  0.34096600  0.51550700  1
  S  S12  1  0.81464100  0.15903400  0.01550700  1
  S  S13  1  0.68535900  0.15903400  0.51550700  1
  S  S14  1  0.43718600  0.07290800  0.78288700  1
  S  S15  1  0.06281400  0.07290800  0.28288700  1
  O  O0  1  0.30559900  0.00345600  0.46829600  1
  O  O1  1  0.19440100  0.00345600  0.96829600  1
  O  O2  1  0.01716200  0.98363800  0.36320900  1
  O  O3  1  0.48283800  0.98363800  0.86320900  1
  O  O4  1  0.51880400  0.98477100  0.31748800  1
  O  O5  1  0.98119600  0.98477100  0.81748800  1
  O  O6  1  0.77299200  0.90273200  0.71995300  1
  O  O7  1  0.72700800  0.90273200  0.21995300  1
  O  O8  1  0.28278400  0.80949800  0.07320300  1
  O  O9  1  0.21721600  0.80949800  0.57320300  1
  O  O10  1  0.03260100  0.81081000  0.02080200  1
  O  O11  1  0.46739900  0.81081000  0.52080200  1
  O  O12  1  0.00500700  0.77528600  0.71401600  1
  O  O13  1  0.49499300  0.77528600  0.21401600  1
  O  O14  1  0.27710900  0.75768500  0.39944400  1
  O  O15  1  0.22289100  0.75768500  0.89944400  1
  O  O16  1  0.77710900  0.74231500  0.39944400  1
  O  O17  1  0.72289100  0.74231500  0.89944400  1
  O  O18  1  0.99499300  0.72471400  0.21401600  1
  O  O19  1  0.50500700  0.72471400  0.71401600  1
  O  O20  1  0.96739900  0.68919000  0.52080200  1
  O  O21  1  0.53260100  0.68919000  0.02080200  1
  O  O22  1  0.78278400  0.69050200  0.07320300  1
  O  O23  1  0.71721600  0.69050200  0.57320300  1
  O  O24  1  0.22700800  0.59726800  0.21995300  1
  O  O25  1  0.27299200  0.59726800  0.71995300  1
  O  O26  1  0.48119600  0.51522900  0.81748800  1
  O  O27  1  0.01880400  0.51522900  0.31748800  1
  O  O28  1  0.51716200  0.51636200  0.36320900  1
  O  O29  1  0.98283800  0.51636200  0.86320900  1
  O  O30  1  0.80559900  0.49654400  0.46829600  1
  O  O31  1  0.69440100  0.49654400  0.96829600  1
  O  O32  1  0.30559900  0.50345600  0.03170400  1
  O  O33  1  0.19440100  0.50345600  0.53170400  1
  O  O34  1  0.48283800  0.48363800  0.63679100  1
  O  O35  1  0.01716200  0.48363800  0.13679100  1
  O  O36  1  0.51880400  0.48477100  0.18251200  1
  O  O37  1  0.98119600  0.48477100  0.68251200  1
  O  O38  1  0.72700800  0.40273200  0.28004700  1
  O  O39  1  0.77299200  0.40273200  0.78004700  1
  O  O40  1  0.28278400  0.30949800  0.42679700  1
  O  O41  1  0.21721600  0.30949800  0.92679700  1
  O  O42  1  0.46739900  0.31081000  0.97919800  1
  O  O43  1  0.03260100  0.31081000  0.47919800  1
  O  O44  1  0.49499300  0.27528600  0.28598400  1
  O  O45  1  0.00500700  0.27528600  0.78598400  1
  O  O46  1  0.27710900  0.25768500  0.10055600  1
  O  O47  1  0.22289100  0.25768500  0.60055600  1
  O  O48  1  0.77710900  0.24231500  0.10055600  1
  O  O49  1  0.72289100  0.24231500  0.60055600  1
  O  O50  1  0.50500700  0.22471400  0.78598400  1
  O  O51  1  0.99499300  0.22471400  0.28598400  1
  O  O52  1  0.53260100  0.18919000  0.47919800  1
  O  O53  1  0.96739900  0.18919000  0.97919800  1
  O  O54  1  0.78278400  0.19050200  0.42679700  1
  O  O55  1  0.71721600  0.19050200  0.92679700  1
  O  O56  1  0.27299200  0.09726800  0.78004700  1
  O  O57  1  0.22700800  0.09726800  0.28004700  1
  O  O58  1  0.48119600  0.01522900  0.68251200  1
  O  O59  1  0.01880400  0.01522900  0.18251200  1
  O  O60  1  0.98283800  0.01636200  0.63679100  1
  O  O61  1  0.51716200  0.01636200  0.13679100  1
  O  O62  1  0.80559900  0.99654400  0.03170400  1
  O  O63  1  0.69440100  0.99654400  0.53170400  1
loop_
_geom_bond_atom_site_label_1
_geom_bond_atom_site_label_2
_geom_bond_distance
_geom_bond_site_symmetry_2
O0 S2 1.510277 1_545
O0 Ti6 1.984994 1_555
O1 S3 1.510277 1_545
O1 Ti7 1.984994 1_555
O2 S15 1.423667 1_565
O3 S14 1.423667 1_565
O4 S1 1.512180 1_555
O4 Ti6 2.017844 1_565
O5 S0 1.512180 1_555
O5 Ti7 2.017844 1_665
O6 S0 1.515404 1_555
O6 Ti1 2.007444 1_555
O7 S1 1.515404 1_555
O7 Ti0 2.007444 1_555
O8 S3 1.521472 1_554
O8 Ti2 1.950217 1_555
O9 S2 1.521472 1_555
O9 Ti3 1.950217 1_555
O10 S3 1.503727 1_554
O10 Ti0 1.970524 1_455
O11 S2 1.503727 1_555
O11 Ti1 1.970524 1_555
O12 S0 1.525696 1_455
O12 Ti3 1.932438 1_555
O13 S1 1.525696 1_555
O13 Ti2 1.932438 1_555
O14 S2 1.423586 1_555
O15 S3 1.423586 1_555
O16 S4 1.423586 1_555
O17 S5 1.423586 1_555
O18 S6 1.525696 1_655
O18 Ti0 1.932438 1_555
O19 S7 1.525696 1_555
O19 Ti1 1.932438 1_555
O20 S4 1.503727 1_555
O20 Ti3 1.970524 1_655
O21 S5 1.503727 1_554
O21 Ti2 1.970524 1_555
O22 S5 1.521472 1_554
O22 Ti0 1.950217 1_555
O23 S4 1.521472 1_555
O23 Ti1 1.950217 1_555
O24 S6 1.515404 1_555
O24 Ti2 2.007444 1_555
O25 S7 1.515404 1_555
O25 Ti3 2.007444 1_555
O26 S7 1.512180 1_555
O26 Ti5 2.017844 1_555
O27 S6 1.512180 1_555
O27 Ti4 2.017844 1_455
O28 S8 1.423667 1_555
O29 S9 1.423667 1_555
O30 S4 1.510277 1_555
O30 Ti4 1.984994 1_555
O31 S5 1.510277 1_555
O31 Ti5 1.984994 1_555
O32 S10 1.510277 1_555
O32 Ti2 1.984994 1_555
O33 S11 1.510277 1_555
O33 Ti3 1.984994 1_555
O34 S7 1.423667 1_555
O35 S6 1.423667 1_555
O36 S8 1.512180 1_555
O36 Ti2 2.017844 1_555
O37 S9 1.512180 1_555
O37 Ti3 2.017844 1_655
O38 S8 1.515404 1_555
O38 Ti4 2.007444 1_555
O39 S9 1.515404 1_555
O39 Ti5 2.007444 1_555
O40 S11 1.521472 1_555
O40 Ti6 1.950217 1_555
O41 S10 1.521472 1_556
O41 Ti7 1.950217 1_555
O42 S10 1.503727 1_556
O42 Ti5 1.970524 1_555
O43 S11 1.503727 1_555
O43 Ti4 1.970524 1_455
O44 S8 1.525696 1_555
O44 Ti6 1.932438 1_555
O45 S9 1.525696 1_455
O45 Ti7 1.932438 1_555
O46 S10 1.423586 1_555
O47 S11 1.423586 1_555
O48 S12 1.423586 1_555
O49 S13 1.423586 1_555
O50 S14 1.525696 1_555
O50 Ti5 1.932438 1_555
O51 S15 1.525696 1_655
O51 Ti4 1.932438 1_555
O52 S13 1.503727 1_555
O52 Ti6 1.970524 1_555
O53 S12 1.503727 1_556
O53 Ti7 1.970524 1_655
O54 S13 1.521472 1_555
O54 Ti4 1.950217 1_555
O55 S12 1.521472 1_556
O55 Ti5 1.950217 1_555
O56 S14 1.515404 1_555
O56 Ti7 2.007444 1_555
O57 S15 1.515404 1_555
O57 Ti6 2.007444 1_555
O58 S14 1.512180 1_555
O58 Ti1 2.017844 1_545
O59 S15 1.512180 1_555
O59 Ti0 2.017844 1_445
O60 S0 1.423667 1_545
O61 S1 1.423667 1_545
O62 S12 1.510277 1_565
O62 Ti0 1.984994 1_555
O63 S13 1.510277 1_565
O63 Ti1 1.984994 1_555
