# generated using pymatgen
data_Na11Mn24O48
_symmetry_space_group_name_H-M   'P 1'
_cell_length_a   6.18999200
_cell_length_b   12.32394714
_cell_length_c   13.54260611
_cell_angle_alpha   102.40242150
_cell_angle_beta   102.12157212
_cell_angle_gamma   94.06942058
_symmetry_Int_Tables_number   1
_chemical_formula_structural   Na11Mn24O48
_chemical_formula_sum   'Na11 Mn24 O48'
_cell_volume   979.17970447
_cell_formula_units_Z   1
loop_
 _symmetry_equiv_pos_site_id
 _symmetry_equiv_pos_as_xyz
  1  'x, y, z'
loop_
 _atom_site_type_symbol
 _atom_site_label
 _atom_site_symmetry_multiplicity
 _atom_site_fract_x
 _atom_site_fract_y
 _atom_site_fract_z
 _atom_site_occupancy
  Na  Na0  1  0.30883800  0.01799700  0.58644700  1
  Na  Na1  1  0.96825700  0.35247500  0.91110200  1
  Na  Na2  1  0.37549700  0.31303200  0.75126600  1
  Na  Na3  1  0.95343900  0.85537100  0.92102500  1
  Na  Na4  1  0.27797800  0.52590100  0.58594500  1
  Na  Na5  1  0.62806600  0.18633500  0.25347200  1
  Na  Na6  1  0.69257500  0.48088600  0.41709600  1
  Na  Na7  1  0.04001700  0.14706100  0.08575500  1
  Na  Na8  1  0.03187100  0.64233000  0.07529600  1
  Na  Na9  1  0.72363200  0.97642700  0.41695900  1
  Na  Na10  1  0.62349300  0.68625700  0.24543400  1
  Mn  Mn0  1  0.49134500  0.00006700  0.99902200  1
  Mn  Mn1  1  0.50576500  0.24741100  0.00187100  1
  Mn  Mn2  1  0.17281300  0.07804100  0.83364400  1
  Mn  Mn3  1  0.50680700  0.49935100  0.99756800  1
  Mn  Mn4  1  0.67247800  0.07825400  0.83431200  1
  Mn  Mn5  1  0.49238400  0.75289700  0.99363500  1
  Mn  Mn6  1  0.15900900  0.59170400  0.83297000  1
  Mn  Mn7  1  0.65946300  0.59131500  0.83290400  1
  Mn  Mn8  1  0.84309300  0.16132500  0.66658500  1
  Mn  Mn9  1  0.82259200  0.42156600  0.66768100  1
  Mn  Mn10  1  0.50111400  0.24984000  0.50103500  1
  Mn  Mn11  1  0.17699500  0.07934800  0.33553700  1
  Mn  Mn12  1  0.82813200  0.67396900  0.67115100  1
  Mn  Mn13  1  0.00020800  0.25013700  0.50097000  1
  Mn  Mn14  1  0.16059300  0.33829400  0.33606700  1
  Mn  Mn15  1  0.15564400  0.58629600  0.32849500  1
  Mn  Mn16  1  0.84440600  0.91195000  0.67188300  1
  Mn  Mn17  1  0.49962900  0.75112700  0.50289200  1
  Mn  Mn18  1  0.00372200  0.75045900  0.50289000  1
  Mn  Mn19  1  0.17289000  0.82776200  0.32923100  1
  Mn  Mn20  1  0.33001800  0.41553000  0.16460200  1
  Mn  Mn21  1  0.83156600  0.41598600  0.16564800  1
  Mn  Mn22  1  0.33502400  0.91218700  0.16492800  1
  Mn  Mn23  1  0.83676100  0.91528500  0.16396000  1
  O  O0  1  0.28326500  0.11385900  0.98875100  1
  O  O1  1  0.69728100  0.12366700  0.99044700  1
  O  O2  1  0.41589500  0.19613900  0.85182100  1
  O  O3  1  0.07321100  0.03703800  0.68475000  1
  O  O4  1  0.27464600  0.63279400  0.98329800  1
  O  O5  1  0.69661600  0.63999800  0.98759000  1
  O  O6  1  0.43384500  0.48187000  0.84998600  1
  O  O7  1  0.04170800  0.28214900  0.65081600  1
  O  O8  1  0.93288000  0.17708400  0.82619700  1
  O  O9  1  0.64666300  0.03553000  0.68018900  1
  O  O10  1  0.03453600  0.55308100  0.68080600  1
  O  O11  1  0.43228900  0.69713400  0.84323300  1
  O  O12  1  0.88801600  0.48682700  0.82863700  1
  O  O13  1  0.60666700  0.29393800  0.65035400  1
  O  O14  1  0.23179900  0.14499000  0.49349200  1
  O  O15  1  0.89099800  0.69477200  0.81976400  1
  O  O16  1  0.03887700  0.79619200  0.66304800  1
  O  O17  1  0.74004000  0.14907400  0.50858500  1
  O  O18  1  0.41478900  0.98018500  0.84626700  1
  O  O19  1  0.61246800  0.55495200  0.68401900  1
  O  O20  1  0.26125300  0.35188700  0.49162000  1
  O  O21  1  0.76818600  0.35418100  0.50803100  1
  O  O22  1  0.39418700  0.20422800  0.35140600  1
  O  O23  1  0.10602100  0.01529400  0.17326600  1
  O  O24  1  0.24855000  0.63607100  0.47960000  1
  O  O25  1  0.93084700  0.96660600  0.82120400  1
  O  O26  1  0.62545400  0.78535800  0.66332400  1
  O  O27  1  0.77300800  0.64639500  0.52047600  1
  O  O28  1  0.23069700  0.85478900  0.47969800  1
  O  O29  1  0.55381800  0.02300500  0.14850400  1
  O  O30  1  0.96046700  0.21769100  0.35108200  1
  O  O31  1  0.35621600  0.46614900  0.31914800  1
  O  O32  1  0.07186800  0.31882700  0.17956200  1
  O  O33  1  0.37539300  0.71501200  0.33887200  1
  O  O34  1  0.07018700  0.53118300  0.17743100  1
  O  O35  1  0.74967400  0.86328800  0.52074300  1
  O  O36  1  0.92657000  0.46553900  0.31616200  1
  O  O37  1  0.59083900  0.30004100  0.15233900  1
  O  O38  1  0.96411900  0.70533300  0.33897600  1
  O  O39  1  0.38894700  0.94422200  0.31441400  1
  O  O40  1  0.58775800  0.51403500  0.15026500  1
  O  O41  1  0.10916300  0.80490900  0.17871300  1
  O  O42  1  0.30515500  0.36375300  0.01133800  1
  O  O43  1  0.73417500  0.36725300  0.01393700  1
  O  O44  1  0.56793800  0.81033200  0.15005800  1
  O  O45  1  0.96386300  0.94481000  0.31875900  1
  O  O46  1  0.29298500  0.87260700  0.00987800  1
  O  O47  1  0.70505600  0.88926000  0.00986200  1
loop_
_geom_bond_atom_site_label_1
_geom_bond_atom_site_label_2
_geom_bond_distance
_geom_bond_site_symmetry_2
Na0 O3 2.164377 1_555
Na0 O28 2.165341 1_545
Na0 O9 2.175848 1_555
Na0 O14 2.227470 1_555
Na1 O8 2.191271 1_555
Na1 O43 2.201846 1_556
Na1 O42 2.213555 1_656
Na1 O12 2.216638 1_555
Na2 O13 2.168299 1_555
Na2 O6 2.177832 1_555
Na2 O2 2.177852 1_555
Na2 O7 2.179443 1_555
Na3 O15 2.109547 1_555
Na3 O25 2.114263 1_555
Na3 O47 2.153567 1_556
Na3 O46 2.162234 1_656
Na4 O19 2.171354 1_555
Na4 O24 2.171548 1_555
Na4 O10 2.175577 1_555
Na4 O20 2.231086 1_555
Na5 O22 2.151644 1_555
Na5 O37 2.151808 1_555
Na5 O29 2.156120 1_555
Na5 O30 2.157715 1_555
Na6 O27 2.169080 1_555
Na6 O36 2.182081 1_555
Na6 O31 2.193274 1_555
Na6 O21 2.204910 1_555
Na7 O32 2.194122 1_555
Na7 O0 2.201728 1_554
Na7 O1 2.203022 1_454
Na7 O23 2.219451 1_555
Na8 O34 2.137258 1_555
Na8 O4 2.138429 1_554
Na8 O41 2.140567 1_555
Na8 O5 2.158672 1_454
Na9 O35 2.173502 1_555
Na9 O39 2.194603 1_555
Na9 O45 2.195870 1_555
Na9 O17 2.204410 1_565
Na10 O38 2.187619 1_555
Na10 O33 2.187705 1_555
Na10 O40 2.203052 1_555
Na10 O44 2.204811 1_555
Mn0 O29 1.933248 1_556
Mn0 O1 1.954808 1_555
Mn0 O47 1.974156 1_546
Mn0 O46 1.974319 1_546
Mn0 O0 1.977339 1_555
Mn0 O18 1.979445 1_545
Mn1 O43 1.926119 1_555
Mn1 O2 1.939546 1_554
Mn1 O37 1.945114 1_555
Mn1 O42 1.963365 1_555
Mn1 O1 1.996809 1_554
Mn1 O0 2.021701 1_554
Mn2 O25 1.913218 1_445
Mn2 O3 1.922856 1_555
Mn2 O2 1.955161 1_555
Mn2 O8 1.988234 1_455
Mn2 O18 1.991100 1_545
Mn2 O0 2.007573 1_555
Mn3 O6 1.914970 1_555
Mn3 O40 1.987791 1_556
Mn3 O5 2.069143 1_555
Mn3 O42 2.078699 1_556
Mn3 O43 2.242632 1_556
Mn3 O4 2.272085 1_555
Mn4 O8 1.986698 1_555
Mn4 O18 1.987494 1_545
Mn4 O9 2.008780 1_555
Mn4 O1 2.037384 1_555
Mn4 O25 2.192975 1_545
Mn4 O2 2.242116 1_555
Mn5 O4 1.890923 1_555
Mn5 O5 1.945498 1_555
Mn5 O11 1.950279 1_555
Mn5 O46 1.995347 1_556
Mn5 O47 2.002837 1_556
Mn5 O44 2.024872 1_556
Mn6 O4 1.951185 1_555
Mn6 O10 1.981538 1_555
Mn6 O11 2.020095 1_555
Mn6 O12 2.026371 1_455
Mn6 O15 2.160948 1_455
Mn6 O6 2.252925 1_555
Mn7 O15 1.912215 1_555
Mn7 O19 1.922996 1_555
Mn7 O6 1.955899 1_555
Mn7 O12 1.980896 1_555
Mn7 O11 1.990529 1_555
Mn7 O5 2.009841 1_555
Mn8 O7 1.939415 1_655
Mn8 O9 1.965956 1_555
Mn8 O17 2.069417 1_555
Mn8 O8 2.078167 1_555
Mn8 O3 2.181741 1_655
Mn8 O13 2.284675 1_555
Mn9 O13 1.930496 1_555
Mn9 O10 1.963726 1_655
Mn9 O21 2.088274 1_555
Mn9 O12 2.095760 1_555
Mn9 O19 2.170482 1_555
Mn9 O7 2.266313 1_655
Mn10 O13 1.932373 1_555
Mn10 O22 1.937746 1_555
Mn10 O21 1.993904 1_555
Mn10 O17 1.997901 1_555
Mn10 O14 2.006304 1_555
Mn10 O20 2.014127 1_555
Mn11 O22 1.914453 1_555
Mn11 O45 1.985712 1_445
Mn11 O14 2.063567 1_555
Mn11 O23 2.108465 1_555
Mn11 O39 2.199860 1_545
Mn11 O30 2.244145 1_455
Mn12 O15 1.924325 1_555
Mn12 O26 1.928920 1_555
Mn12 O27 1.946523 1_555
Mn12 O16 1.958283 1_655
Mn12 O19 1.973184 1_555
Mn12 O10 2.037815 1_655
Mn13 O7 1.939717 1_555
Mn13 O30 1.941254 1_455
Mn13 O21 1.995585 1_455
Mn13 O17 1.998911 1_455
Mn13 O14 2.003180 1_555
Mn13 O20 2.016439 1_555
Mn14 O30 1.938895 1_455
Mn14 O31 2.000588 1_555
Mn14 O32 2.031112 1_555
Mn14 O20 2.033809 1_555
Mn14 O36 2.229403 1_455
Mn14 O22 2.285630 1_555
Mn15 O36 1.935855 1_455
Mn15 O38 1.950852 1_455
Mn15 O24 1.952195 1_555
Mn15 O34 1.955527 1_555
Mn15 O33 1.975864 1_555
Mn15 O31 1.999069 1_555
Mn16 O16 1.931183 1_655
Mn16 O25 1.933549 1_555
Mn16 O35 1.952372 1_555
Mn16 O26 1.959719 1_555
Mn16 O3 1.970741 1_665
Mn16 O9 2.019709 1_565
Mn17 O35 1.939170 1_555
Mn17 O24 1.953136 1_555
Mn17 O26 2.086634 1_555
Mn17 O33 2.129044 1_555
Mn17 O28 2.180946 1_555
Mn17 O27 2.204319 1_555
Mn18 O27 1.937805 1_455
Mn18 O28 1.956571 1_555
Mn18 O16 2.080541 1_555
Mn18 O38 2.125750 1_455
Mn18 O24 2.167125 1_555
Mn18 O35 2.188718 1_455
Mn19 O33 1.943058 1_555
Mn19 O28 1.943342 1_555
Mn19 O41 1.946781 1_555
Mn19 O38 1.960703 1_455
Mn19 O39 1.962854 1_555
Mn19 O45 2.012641 1_455
Mn20 O32 1.996037 1_555
Mn20 O40 2.003298 1_555
Mn20 O42 2.005477 1_555
Mn20 O31 2.019450 1_555
Mn20 O34 2.232668 1_555
Mn20 O37 2.235410 1_555
Mn21 O34 1.930998 1_655
Mn21 O37 1.941395 1_555
Mn21 O36 1.945392 1_555
Mn21 O43 1.960548 1_555
Mn21 O32 1.978328 1_655
Mn21 O40 2.004001 1_555
Mn22 O41 1.921115 1_555
Mn22 O39 1.928676 1_555
Mn22 O29 1.934773 1_565
Mn22 O23 1.974338 1_565
Mn22 O44 1.991238 1_555
Mn22 O46 2.006806 1_555
Mn23 O23 1.966317 1_665
Mn23 O44 1.983862 1_555
Mn23 O47 2.020759 1_555
Mn23 O45 2.021195 1_555
Mn23 O41 2.243702 1_655
Mn23 O29 2.273547 1_565
