# generated using pymatgen
data_LiSnPO4
_symmetry_space_group_name_H-M   'P 1'
_cell_length_a   4.86877900
_cell_length_b   7.16946500
_cell_length_c   10.87027100
_cell_angle_alpha   90.00000000
_cell_angle_beta   90.00000000
_cell_angle_gamma   90.00000000
_symmetry_Int_Tables_number   1
_chemical_formula_structural   LiSnPO4
_chemical_formula_sum   'Li4 Sn4 P4 O16'
_cell_volume   379.44355636
_cell_formula_units_Z   4
loop_
 _symmetry_equiv_pos_site_id
 _symmetry_equiv_pos_as_xyz
  1  'x, y, z'
loop_
 _atom_site_type_symbol
 _atom_site_label
 _atom_site_symmetry_multiplicity
 _atom_site_fract_x
 _atom_site_fract_y
 _atom_site_fract_z
 _atom_site_occupancy
  Li  Li0  1  0.47094600  0.74425900  0.24148300  1
  Li  Li1  1  0.52905400  0.24425900  0.25851700  1
  Li  Li2  1  0.02905400  0.25574100  0.74148300  1
  Li  Li3  1  0.97094600  0.75574100  0.75851700  1
  Sn  Sn0  1  0.94536800  0.00501500  0.04121000  1
  Sn  Sn1  1  0.05463200  0.50501500  0.45879000  1
  Sn  Sn2  1  0.55463200  0.99498500  0.54121000  1
  Sn  Sn3  1  0.44536800  0.49498500  0.95879000  1
  P  P0  1  0.87430400  0.51197000  0.16743500  1
  P  P1  1  0.12569600  0.01197000  0.33256500  1
  P  P2  1  0.62569600  0.48803000  0.66743500  1
  P  P3  1  0.37430400  0.98803000  0.83256500  1
  O  O0  1  0.74573400  0.68140300  0.09524900  1
  O  O1  1  0.76713900  0.33475100  0.09639400  1
  O  O2  1  0.18721900  0.52249700  0.17994200  1
  O  O3  1  0.26791300  0.00779000  0.20190200  1
  O  O4  1  0.73208700  0.50779000  0.29809800  1
  O  O5  1  0.81278100  0.02249700  0.32005800  1
  O  O6  1  0.23286100  0.83475100  0.40360600  1
  O  O7  1  0.25426600  0.18140300  0.40475100  1
  O  O8  1  0.75426600  0.31859700  0.59524900  1
  O  O9  1  0.73286100  0.66524900  0.59639400  1
  O  O10  1  0.31278100  0.47750300  0.67994200  1
  O  O11  1  0.23208700  0.99221000  0.70190200  1
  O  O12  1  0.76791300  0.49221000  0.79809800  1
  O  O13  1  0.68721900  0.97750300  0.82005800  1
  O  O14  1  0.26713900  0.16524900  0.90360600  1
  O  O15  1  0.24573400  0.81859700  0.90475100  1
loop_
_geom_bond_atom_site_label_1
_geom_bond_atom_site_label_2
_geom_bond_distance
_geom_bond_site_symmetry_2
Li0 O0 2.125993 1_555
Li0 O3 2.175325 1_565
Li0 O4 2.206701 1_555
Li0 O6 2.206897 1_555
Li0 O2 2.209892 1_555
Li0 O5 2.734739 1_565
Li1 O7 2.125993 1_555
Li1 O4 2.175325 1_555
Li1 O3 2.206701 1_555
Li1 O1 2.206897 1_555
Li1 O5 2.209892 1_555
Li1 O2 2.734739 1_555
Li2 O8 2.125993 1_455
Li2 O11 2.175325 1_545
Li2 O12 2.206701 1_455
Li2 O14 2.206897 1_555
Li2 O10 2.209892 1_555
Li2 O13 2.734739 1_445
Li3 O15 2.125993 1_655
Li3 O12 2.175325 1_555
Li3 O11 2.206701 1_655
Li3 O9 2.206897 1_555
Li3 O13 2.209892 1_555
Li3 O10 2.734739 1_655
O0 P0 1.575810 1_555
O0 Sn3 2.474925 1_554
O0 Sn0 2.583171 1_565
O1 P0 1.575728 1_555
O1 Sn3 2.451827 1_554
O1 Sn0 2.588722 1_555
O2 P0 1.531429 1_455
O2 Sn3 2.719882 1_554
O2 Sn1 3.101664 1_555
O3 P1 1.580418 1_555
O3 Sn0 2.348988 1_455
O4 P0 1.580418 1_555
O4 Sn1 2.348988 1_655
O5 P1 1.531429 1_655
O5 Sn2 2.719882 1_545
O5 Sn0 3.101664 1_555
O6 P1 1.575728 1_565
O6 Sn2 2.451827 1_555
O6 Sn1 2.588722 1_555
O7 P1 1.575810 1_555
O7 Sn2 2.474925 1_545
O7 Sn1 2.583171 1_555
O8 P2 1.575810 1_555
O8 Sn1 2.474925 1_655
O8 Sn2 2.583171 1_545
O9 P2 1.575728 1_555
O9 Sn1 2.451827 1_655
O9 Sn2 2.588722 1_555
O10 P2 1.531429 1_555
O10 Sn1 2.719882 1_555
O10 Sn3 3.101664 1_555
O11 P3 1.580418 1_555
O11 Sn2 2.348988 1_555
O12 P2 1.580418 1_555
O12 Sn3 2.348988 1_555
O13 P3 1.531429 1_555
O13 Sn0 2.719882 1_566
O13 Sn2 3.101664 1_555
O14 P3 1.575728 1_545
O14 Sn0 2.451827 1_456
O14 Sn3 2.588722 1_555
O15 P3 1.575810 1_555
O15 Sn0 2.474925 1_466
O15 Sn3 2.583171 1_555
