# generated using pymatgen
data_Os(OF2)2
_symmetry_space_group_name_H-M   'P 1'
_cell_length_a   5.02116127
_cell_length_b   5.02116127
_cell_length_c   27.87245700
_cell_angle_alpha   90.00000000
_cell_angle_beta   90.00000000
_cell_angle_gamma   119.99999032
_symmetry_Int_Tables_number   1
_chemical_formula_structural   Os(OF2)2
_chemical_formula_sum   'Os6 O12 F24'
_cell_volume   608.57522448
_cell_formula_units_Z   6
loop_
 _symmetry_equiv_pos_site_id
 _symmetry_equiv_pos_as_xyz
  1  'x, y, z'
loop_
 _atom_site_type_symbol
 _atom_site_label
 _atom_site_symmetry_multiplicity
 _atom_site_fract_x
 _atom_site_fract_y
 _atom_site_fract_z
 _atom_site_occupancy
  Os  Os0  1  0.00967100  0.46532300  0.83468400  1
  Os  Os1  1  0.45565200  0.99032900  0.50135000  1
  Os  Os2  1  0.46532300  0.45565200  0.66801700  1
  Os  Os3  1  0.53467700  0.54434800  0.16801700  1
  Os  Os4  1  0.54434800  0.00967100  0.00135000  1
  Os  Os5  1  0.99032900  0.53467700  0.33468400  1
  O  O0  1  0.17980000  0.73681000  0.54016000  1
  O  O1  1  0.25678400  0.73881300  0.79516200  1
  O  O2  1  0.26118700  0.51797000  0.12849600  1
  O  O3  1  0.26319000  0.44299000  0.87349300  1
  O  O4  1  0.48203000  0.74321600  0.46182900  1
  O  O5  1  0.55701000  0.82020000  0.20682700  1
  O  O6  1  0.44299000  0.17980000  0.70682700  1
  O  O7  1  0.51797000  0.25678400  0.96182900  1
  O  O8  1  0.73681000  0.55701000  0.37349300  1
  O  O9  1  0.73881300  0.48203000  0.62849600  1
  O  O10  1  0.74321600  0.26118700  0.29516200  1
  O  O11  1  0.82020000  0.26319000  0.04016000  1
  F  F0  1  0.04420700  0.86478600  0.29617500  1
  F  F1  1  0.21643900  0.96089000  0.03994100  1
  F  F2  1  0.22720100  0.66193300  0.96631000  1
  F  F3  1  0.32913900  0.85060800  0.37150500  1
  F  F4  1  0.14939200  0.47853100  0.70483800  1
  F  F5  1  0.03911000  0.25554900  0.37327500  1
  F  F6  1  0.13521400  0.17942100  0.62950800  1
  F  F7  1  0.43473200  0.77279900  0.63297600  1
  F  F8  1  0.33806700  0.56526800  0.29964300  1
  F  F9  1  0.25554900  0.21643900  0.20660800  1
  F  F10  1  0.17942100  0.04420700  0.46284100  1
  F  F11  1  0.52146900  0.67086100  0.03817200  1
  F  F12  1  0.47853100  0.32913900  0.53817200  1
  F  F13  1  0.82057900  0.95579300  0.96284100  1
  F  F14  1  0.74445100  0.78356100  0.70660800  1
  F  F15  1  0.66193300  0.43473200  0.79964300  1
  F  F16  1  0.56526800  0.22720100  0.13297600  1
  F  F17  1  0.86478600  0.82057900  0.12950800  1
  F  F18  1  0.96089000  0.74445100  0.87327500  1
  F  F19  1  0.85060800  0.52146900  0.20483800  1
  F  F20  1  0.67086100  0.14939200  0.87150500  1
  F  F21  1  0.77279900  0.33806700  0.46631000  1
  F  F22  1  0.78356100  0.03911000  0.53994100  1
  F  F23  1  0.95579300  0.13521400  0.79617500  1
loop_
_geom_bond_atom_site_label_1
_geom_bond_atom_site_label_2
_geom_bond_distance
_geom_bond_site_symmetry_2
O0 Os1 1.716359 1_555
O1 Os0 1.713159 1_555
O2 Os3 1.713140 1_555
O3 Os0 1.716341 1_555
O4 Os1 1.713143 1_555
O5 Os3 1.716359 1_555
O6 Os2 1.716359 1_555
O7 Os4 1.713143 1_556
O8 Os5 1.716341 1_555
O9 Os2 1.713140 1_555
O10 Os5 1.713159 1_555
O11 Os4 1.716359 1_555
F0 Os5 1.877296 1_455
F0 F3 2.561688 1_555
F0 F8 2.582125 1_555
F0 O10 2.624877 1_455
F1 Os4 1.877389 1_565
F1 F2 2.559143 1_554
F1 F11 2.588330 1_555
F1 O11 2.625435 1_565
F1 O7 2.643924 1_564
F2 Os4 1.938538 1_566
F2 O7 2.589911 1_565
F3 Os5 1.940409 1_455
F3 F8 2.476059 1_555
F3 O8 2.576343 1_455
F3 F5 2.588331 1_555
F4 Os2 1.940409 1_555
F4 F7 2.476059 1_555
F4 F6 2.561688 1_555
F4 O6 2.576344 1_555
F5 Os5 1.877389 1_455
F5 F8 2.559165 1_555
F5 O8 2.625434 1_455
F5 O10 2.643949 1_455
F6 Os2 1.877297 1_555
F6 F7 2.582126 1_555
F6 O9 2.624877 1_555
F7 Os2 1.938552 1_555
F7 O9 2.589905 1_555
F8 Os5 1.938552 1_455
F8 O10 2.589911 1_455
F9 Os3 1.877389 1_555
F9 O5 2.625435 1_555
F9 O2 2.643923 1_555
F10 Os1 1.877296 1_545
F10 F12 2.561711 1_555
F10 F21 2.582127 1_555
F10 O4 2.624881 1_545
F11 Os4 1.940423 1_565
F11 F2 2.476059 1_554
F11 F13 2.561711 1_554
F11 O11 2.576343 1_565
F12 Os1 1.940423 1_545
F12 F21 2.476059 1_555
F12 O0 2.576343 1_545
F12 F22 2.588330 1_555
F13 Os4 1.877296 1_566
F13 F2 2.582127 1_555
F13 O7 2.624881 1_565
F14 Os2 1.877389 1_555
F14 F7 2.559165 1_555
F14 F4 2.588331 1_555
F14 O6 2.625435 1_555
F14 O9 2.643923 1_555
F15 Os0 1.938552 1_655
F15 F20 2.476059 1_555
F15 F18 2.559165 1_555
F15 F23 2.582125 1_555
F15 O1 2.589911 1_655
F16 Os3 1.938552 1_555
F16 F19 2.476059 1_555
F16 F9 2.559165 1_555
F16 F17 2.582126 1_555
F16 O2 2.589905 1_555
F17 Os3 1.877297 1_555
F17 F19 2.561688 1_555
F17 O2 2.624877 1_555
F18 Os0 1.877389 1_655
F18 F20 2.588331 1_555
F18 O3 2.625434 1_655
F18 O1 2.643949 1_655
F19 Os3 1.940409 1_555
F19 O5 2.576344 1_555
F19 F9 2.588331 1_555
F20 Os0 1.940409 1_655
F20 F23 2.561688 1_555
F20 O3 2.576343 1_655
F21 Os1 1.938538 1_545
F21 F22 2.559143 1_555
F21 O4 2.589911 1_545
F22 Os1 1.877389 1_545
F22 O0 2.625435 1_545
F22 O4 2.643924 1_545
F23 Os0 1.877296 1_655
F23 O1 2.624877 1_655
