# generated using pymatgen
data_Na(BH)5
_symmetry_space_group_name_H-M   'P 1'
_cell_length_a   13.34220700
_cell_length_b   6.74343700
_cell_length_c   12.27343544
_cell_angle_alpha   60.32796917
_cell_angle_beta   90.00000000
_cell_angle_gamma   90.00000000
_symmetry_Int_Tables_number   1
_chemical_formula_structural   Na(BH)5
_chemical_formula_sum   'Na8 B40 H40'
_cell_volume   959.47035047
_cell_formula_units_Z   8
loop_
 _symmetry_equiv_pos_site_id
 _symmetry_equiv_pos_as_xyz
  1  'x, y, z'
loop_
 _atom_site_type_symbol
 _atom_site_label
 _atom_site_symmetry_multiplicity
 _atom_site_fract_x
 _atom_site_fract_y
 _atom_site_fract_z
 _atom_site_occupancy
  Na  Na0  1  0.33939800  0.82768100  0.49831100  1
  Na  Na1  1  0.12180500  0.23132700  0.50628800  1
  Na  Na2  1  0.83939800  0.17231900  0.00168900  1
  Na  Na3  1  0.62180500  0.76867300  0.99371200  1
  Na  Na4  1  0.37819500  0.23132700  0.00628800  1
  Na  Na5  1  0.16060200  0.82768100  0.99831100  1
  Na  Na6  1  0.87819500  0.76867300  0.49371200  1
  Na  Na7  1  0.66060200  0.17231900  0.50168900  1
  B  B0  1  0.08510700  0.73927100  0.57753400  1
  B  B1  1  0.66365500  0.71374400  0.60563100  1
  B  B2  1  0.16844000  0.51984200  0.62280100  1
  B  B3  1  0.54780600  0.61335900  0.66443700  1
  B  B4  1  0.64720200  0.43033600  0.66492100  1
  B  B5  1  0.17858100  0.73455200  0.67327200  1
  B  B6  1  0.03695000  0.47314500  0.67206100  1
  B  B7  1  0.04707700  0.68745700  0.72254200  1
  B  B8  1  0.63326100  0.73408500  0.73437600  1
  B  B9  1  0.73393400  0.54816700  0.73454600  1
  B  B10  1  0.23393400  0.45183300  0.76545400  1
  B  B11  1  0.13326100  0.26591500  0.76562400  1
  B  B12  1  0.54707700  0.31254300  0.77745800  1
  B  B13  1  0.53695000  0.52685500  0.82793900  1
  B  B14  1  0.67858100  0.26544800  0.82672800  1
  B  B15  1  0.14720200  0.56966400  0.83507900  1
  B  B16  1  0.04780600  0.38664100  0.83556300  1
  B  B17  1  0.66844000  0.48015800  0.87719900  1
  B  B18  1  0.16365500  0.28625600  0.89436900  1
  B  B19  1  0.58510700  0.26072900  0.92246600  1
  B  B20  1  0.41489300  0.73927100  0.07753400  1
  B  B21  1  0.83634500  0.71374400  0.10563100  1
  B  B22  1  0.33156000  0.51984200  0.12280100  1
  B  B23  1  0.95219400  0.61335900  0.16443700  1
  B  B24  1  0.85279800  0.43033600  0.16492100  1
  B  B25  1  0.32141900  0.73455200  0.17327200  1
  B  B26  1  0.46305000  0.47314500  0.17206100  1
  B  B27  1  0.45292300  0.68745700  0.22254200  1
  B  B28  1  0.86673900  0.73408500  0.23437600  1
  B  B29  1  0.76606600  0.54816700  0.23454600  1
  B  B30  1  0.26606600  0.45183300  0.26545400  1
  B  B31  1  0.36673900  0.26591500  0.26562400  1
  B  B32  1  0.95292300  0.31254300  0.27745800  1
  B  B33  1  0.96305000  0.52685500  0.32793900  1
  B  B34  1  0.82141900  0.26544800  0.32672800  1
  B  B35  1  0.35279800  0.56966400  0.33507900  1
  B  B36  1  0.45219400  0.38664100  0.33556300  1
  B  B37  1  0.83156000  0.48015800  0.37719900  1
  B  B38  1  0.33634500  0.28625600  0.39436900  1
  B  B39  1  0.91489300  0.26072900  0.42246600  1
  H  H0  1  0.31280200  0.15272700  0.49997400  1
  H  H1  1  0.93756500  0.11732400  0.52680700  1
  H  H2  1  0.21289100  0.49971300  0.54318900  1
  H  H3  1  0.47691600  0.68991300  0.59617800  1
  H  H4  1  0.66534300  0.35620000  0.59714000  1
  H  H5  1  0.96725800  0.40138500  0.63920500  1
  H  H6  1  0.23439000  0.89335300  0.64545400  1
  H  H7  1  0.82360900  0.56450500  0.73244100  1
  H  H8  1  0.98597200  0.80462000  0.73554500  1
  H  H9  1  0.63449600  0.91351900  0.73380800  1
  H  H10  1  0.13449600  0.08648100  0.76619200  1
  H  H11  1  0.32360900  0.43549500  0.76755900  1
  H  H12  1  0.48597200  0.19538000  0.76445500  1
  H  H13  1  0.46725800  0.59861500  0.86079500  1
  H  H14  1  0.73439000  0.10664700  0.85454600  1
  H  H15  1  0.97691600  0.31008700  0.90382200  1
  H  H16  1  0.16534300  0.64380000  0.90286000  1
  H  H17  1  0.71289100  0.50028700  0.95681100  1
  H  H18  1  0.18719800  0.15272700  0.99997400  1
  H  H19  1  0.56243500  0.11732400  0.02680700  1
  H  H20  1  0.43756500  0.88267600  0.97319300  1
  H  H21  1  0.81280200  0.84727300  0.00002600  1
  H  H22  1  0.28710900  0.49971300  0.04318900  1
  H  H23  1  0.83465700  0.35620000  0.09714000  1
  H  H24  1  0.02308400  0.68991300  0.09617800  1
  H  H25  1  0.26561000  0.89335300  0.14545400  1
  H  H26  1  0.53274200  0.40138500  0.13920500  1
  H  H27  1  0.51402800  0.80462000  0.23554500  1
  H  H28  1  0.67639100  0.56450500  0.23244100  1
  H  H29  1  0.86550400  0.91351900  0.23380800  1
  H  H30  1  0.36550400  0.08648100  0.26619200  1
  H  H31  1  0.01402800  0.19538000  0.26445500  1
  H  H32  1  0.17639100  0.43549500  0.26755900  1
  H  H33  1  0.76561000  0.10664700  0.35454600  1
  H  H34  1  0.03274200  0.59861500  0.36079500  1
  H  H35  1  0.33465700  0.64380000  0.40286000  1
  H  H36  1  0.52308400  0.31008700  0.40382200  1
  H  H37  1  0.78710900  0.50028700  0.45681100  1
  H  H38  1  0.06243500  0.88267600  0.47319300  1
  H  H39  1  0.68719800  0.84727300  0.50002600  1
loop_
_geom_bond_atom_site_label_1
_geom_bond_atom_site_label_2
_geom_bond_distance
_geom_bond_site_symmetry_2
B0 H38 1.200229 1_555
B1 H39 1.197468 1_555
B2 H2 1.206742 1_555
B3 H3 1.197815 1_555
B4 H4 1.188423 1_555
B5 H6 1.206559 1_555
B6 H5 1.206067 1_455
B7 H8 1.199671 1_455
B8 H9 1.206679 1_555
B9 H7 1.200629 1_555
B10 H11 1.200629 1_555
B11 H10 1.206679 1_555
B12 H12 1.199671 1_555
B13 H13 1.206067 1_555
B14 H14 1.206559 1_555
B15 H16 1.188423 1_555
B16 H15 1.197815 1_455
B17 H17 1.206742 1_555
B18 H18 1.197468 1_555
B19 H19 1.200229 1_556
B20 H20 1.200229 1_554
B21 H21 1.197468 1_555
B22 H22 1.206742 1_555
B23 H24 1.197815 1_655
B24 H23 1.188423 1_555
B25 H25 1.206559 1_555
B26 H26 1.206067 1_555
B27 H27 1.199671 1_555
B28 H29 1.206679 1_555
B29 H28 1.200629 1_555
B30 H32 1.200629 1_555
B31 H30 1.206679 1_555
B32 H31 1.199671 1_655
B33 H34 1.206067 1_655
B34 H33 1.206559 1_555
B35 H35 1.188423 1_555
B36 H36 1.197815 1_555
B37 H37 1.206742 1_555
B38 H0 1.197468 1_555
B39 H1 1.200229 1_555
H0 Na0 2.230510 1_545
H0 Na1 2.611810 1_555
H1 Na1 2.550557 1_655
H1 Na6 2.695490 1_545
H2 Na1 2.401900 1_555
H2 Na0 2.614874 1_555
H3 Na0 2.137177 1_555
H4 Na7 2.086205 1_555
H5 Na6 2.521182 1_555
H5 Na1 3.174971 1_655
H6 Na0 2.492452 1_555
H6 Na1 2.552252 1_565
H7 Na6 2.648971 1_555
H9 Na7 2.522051 1_565
H9 Na3 2.841382 1_555
H10 Na5 2.522051 1_545
H10 Na1 2.841382 1_555
H11 Na4 2.648971 1_556
H13 Na4 2.521182 1_556
H13 Na3 3.174971 1_555
H14 Na2 2.492452 1_556
H14 Na3 2.552252 1_545
H15 Na2 2.137177 1_556
H16 Na5 2.086205 1_555
H17 Na3 2.401900 1_555
H17 Na2 2.614874 1_556
H18 Na5 2.230510 1_545
H18 Na4 2.611810 1_556
H19 Na4 2.550557 1_555
H19 Na3 2.695490 1_544
H20 Na3 2.550557 1_555
H20 Na4 2.695490 1_566
H21 Na2 2.230510 1_565
H21 Na3 2.611810 1_554
H22 Na4 2.401900 1_555
H22 Na5 2.614874 1_554
H23 Na2 2.086205 1_555
H24 Na5 2.137177 1_554
H25 Na5 2.492452 1_554
H25 Na4 2.552252 1_565
H26 Na3 2.521182 1_554
H26 Na4 3.174971 1_555
H28 Na3 2.648971 1_554
H29 Na2 2.522051 1_565
H29 Na6 2.841382 1_555
H30 Na0 2.522051 1_545
H30 Na4 2.841382 1_555
H32 Na1 2.648971 1_555
H33 Na7 2.492452 1_555
H33 Na6 2.552252 1_545
H34 Na1 2.521182 1_555
H34 Na6 3.174971 1_455
H35 Na0 2.086205 1_555
H36 Na7 2.137177 1_555
H37 Na6 2.401900 1_555
H37 Na7 2.614874 1_555
H38 Na6 2.550557 1_455
H38 Na1 2.695490 1_565
H39 Na7 2.230510 1_565
H39 Na6 2.611810 1_555
