# generated using pymatgen
data_Li4ZrO4
_symmetry_space_group_name_H-M   'P 1'
_cell_length_a   14.71317900
_cell_length_b   5.53179300
_cell_length_c   5.57670532
_cell_angle_alpha   63.28070817
_cell_angle_beta   90.00000000
_cell_angle_gamma   90.00000000
_symmetry_Int_Tables_number   1
_chemical_formula_structural   Li4ZrO4
_chemical_formula_sum   'Li16 Zr4 O16'
_cell_volume   405.42320086
_cell_formula_units_Z   4
loop_
 _symmetry_equiv_pos_site_id
 _symmetry_equiv_pos_as_xyz
  1  'x, y, z'
loop_
 _atom_site_type_symbol
 _atom_site_label
 _atom_site_symmetry_multiplicity
 _atom_site_fract_x
 _atom_site_fract_y
 _atom_site_fract_z
 _atom_site_occupancy
  Li  Li0  1  0.79063200  0.29294300  0.25354600  1
  Li  Li1  1  0.00166000  0.29620800  0.23677400  1
  Li  Li2  1  0.22804200  0.14452900  0.27928900  1
  Li  Li3  1  0.38801300  0.25223900  0.33502400  1
  Li  Li4  1  0.70936800  0.79294300  0.25354600  1
  Li  Li5  1  0.49834000  0.79620800  0.23677400  1
  Li  Li6  1  0.27195800  0.64452900  0.27928900  1
  Li  Li7  1  0.11198700  0.75223900  0.33502400  1
  Li  Li8  1  0.88801300  0.24776100  0.66497600  1
  Li  Li9  1  0.72804200  0.35547100  0.72071100  1
  Li  Li10  1  0.50166000  0.20379200  0.76322600  1
  Li  Li11  1  0.29063200  0.20705700  0.74645400  1
  Li  Li12  1  0.61198700  0.74776100  0.66497600  1
  Li  Li13  1  0.77195800  0.85547100  0.72071100  1
  Li  Li14  1  0.99834000  0.70379200  0.76322600  1
  Li  Li15  1  0.20936800  0.70705700  0.74645400  1
  Zr  Zr0  1  0.60320500  0.35572000  0.21481400  1
  Zr  Zr1  1  0.89679500  0.85572000  0.21481400  1
  Zr  Zr2  1  0.10320500  0.14428000  0.78518600  1
  Zr  Zr3  1  0.39679500  0.64428000  0.78518600  1
  O  O0  1  0.69977500  0.53484100  0.94445600  1
  O  O1  1  0.48882600  0.20380500  0.11948000  1
  O  O2  1  0.80022500  0.03484100  0.94445600  1
  O  O3  1  0.01117400  0.70380500  0.11948000  1
  O  O4  1  0.68377500  0.04142100  0.42509700  1
  O  O5  1  0.59831400  0.53217300  0.45938900  1
  O  O6  1  0.09831400  0.96782700  0.54061100  1
  O  O7  1  0.81622500  0.54142100  0.42509700  1
  O  O8  1  0.18377500  0.45857900  0.57490300  1
  O  O9  1  0.90168600  0.03217300  0.45938900  1
  O  O10  1  0.40168600  0.46782700  0.54061100  1
  O  O11  1  0.31622500  0.95857900  0.57490300  1
  O  O12  1  0.98882600  0.29619500  0.88052000  1
  O  O13  1  0.19977500  0.96515900  0.05554400  1
  O  O14  1  0.51117400  0.79619500  0.88052000  1
  O  O15  1  0.30022500  0.46515900  0.05554400  1
loop_
_geom_bond_atom_site_label_1
_geom_bond_atom_site_label_2
_geom_bond_distance
_geom_bond_site_symmetry_2
Li0 O4 2.031257 1_555
Li0 O7 2.031963 1_555
Li0 O0 2.115334 1_554
Li0 O9 2.139946 1_555
Li0 O2 2.691220 1_554
Li1 O12 1.995709 1_454
Li1 O3 2.050627 1_555
Li1 O9 2.051251 1_455
Li1 O6 2.329236 1_545
Li2 O13 1.956460 1_545
Li2 O15 1.959744 1_555
Li2 O11 1.983508 1_545
Li2 O6 2.332692 1_545
Li3 O11 1.894704 1_545
Li3 O15 1.958064 1_555
Li3 O1 2.001593 1_555
Li3 O10 2.001681 1_555
Li4 O7 2.031257 1_555
Li4 O4 2.031963 1_565
Li4 O2 2.115334 1_564
Li4 O5 2.139946 1_555
Li4 O0 2.691220 1_554
Li5 O14 1.995709 1_554
Li5 O1 2.050627 1_565
Li5 O5 2.051251 1_555
Li5 O10 2.329236 1_555
Li6 O15 1.956460 1_555
Li6 O13 1.959744 1_555
Li6 O8 1.983508 1_555
Li6 O10 2.332692 1_555
Li7 O8 1.894704 1_555
Li7 O13 1.958064 1_555
Li7 O3 2.001593 1_555
Li7 O6 2.001681 1_555
Li8 O7 1.894704 1_555
Li8 O2 1.958064 1_555
Li8 O12 2.001593 1_555
Li8 O9 2.001681 1_555
Li9 O0 1.956460 1_555
Li9 O2 1.959744 1_555
Li9 O7 1.983508 1_555
Li9 O5 2.332692 1_555
Li10 O1 1.995709 1_556
Li10 O14 2.050627 1_545
Li10 O10 2.051251 1_555
Li10 O5 2.329236 1_555
Li11 O8 2.031257 1_555
Li11 O11 2.031963 1_545
Li11 O13 2.115334 1_546
Li11 O10 2.139946 1_555
Li11 O15 2.691220 1_556
Li12 O4 1.894704 1_565
Li12 O0 1.958064 1_555
Li12 O14 2.001593 1_555
Li12 O5 2.001681 1_555
Li13 O2 1.956460 1_565
Li13 O0 1.959744 1_555
Li13 O4 1.983508 1_565
Li13 O9 2.332692 1_565
Li14 O3 1.995709 1_656
Li14 O12 2.050627 1_555
Li14 O6 2.051251 1_655
Li14 O9 2.329236 1_565
Li15 O11 2.031257 1_555
Li15 O8 2.031963 1_555
Li15 O15 2.115334 1_556
Li15 O6 2.139946 1_555
Li15 O13 2.691220 1_556
O0 Zr0 1.982525 1_556
O1 Zr0 2.054921 1_555
O1 Zr3 2.676057 1_554
O2 Zr1 1.982525 1_546
O3 Zr1 2.054921 1_455
O3 Zr2 2.676057 1_564
O4 Zr0 1.992457 1_555
O5 Zr0 2.003851 1_555
O6 Zr2 2.003851 1_565
O7 Zr1 1.992457 1_555
O8 Zr2 1.992457 1_555
O9 Zr1 2.003851 1_545
O10 Zr3 2.003851 1_555
O11 Zr3 1.992457 1_555
O12 Zr2 2.054921 1_655
O12 Zr1 2.676057 1_546
O13 Zr2 1.982525 1_564
O14 Zr3 2.054921 1_555
O14 Zr0 2.676057 1_556
O15 Zr3 1.982525 1_554
