# generated using pymatgen
data_LiFe2(PO4)2
_symmetry_space_group_name_H-M   'P 1'
_cell_length_a   5.15716600
_cell_length_b   8.77288400
_cell_length_c   10.19942394
_cell_angle_alpha   54.62353323
_cell_angle_beta   90.00000000
_cell_angle_gamma   90.00000000
_symmetry_Int_Tables_number   1
_chemical_formula_structural   LiFe2(PO4)2
_chemical_formula_sum   'Li2 Fe4 P4 O16'
_cell_volume   376.25437316
_cell_formula_units_Z   2
loop_
 _symmetry_equiv_pos_site_id
 _symmetry_equiv_pos_as_xyz
  1  'x, y, z'
loop_
 _atom_site_type_symbol
 _atom_site_label
 _atom_site_symmetry_multiplicity
 _atom_site_fract_x
 _atom_site_fract_y
 _atom_site_fract_z
 _atom_site_occupancy
  Li  Li0  1  0.42922600  0.50329900  0.49896100  1
  Li  Li1  1  0.57077400  0.50329900  0.99896100  1
  Fe  Fe0  1  0.04758000  0.49855100  0.24590300  1
  Fe  Fe1  1  0.45903100  0.00000700  0.75588300  1
  Fe  Fe2  1  0.54096900  0.00000700  0.25588300  1
  Fe  Fe3  1  0.95242000  0.49855100  0.74590300  1
  P  P0  1  0.96859800  0.24232700  0.62042800  1
  P  P1  1  0.55540500  0.75305900  0.13268400  1
  P  P2  1  0.44459500  0.75305900  0.63268400  1
  P  P3  1  0.03140200  0.24232700  0.12042800  1
  O  O0  1  0.84490900  0.72907600  0.16775400  1
  O  O1  1  0.67084800  0.22335500  0.66613500  1
  O  O2  1  0.40658700  0.57841100  0.27075200  1
  O  O3  1  0.92605800  0.42031500  0.10226200  1
  O  O4  1  0.11125100  0.06433900  0.75990600  1
  O  O5  1  0.88874900  0.06433900  0.25990600  1
  O  O6  1  0.49433400  0.77197400  0.97143800  1
  O  O7  1  0.00781300  0.26144100  0.46385000  1
  O  O8  1  0.54028100  0.93321000  0.61398700  1
  O  O9  1  0.32915200  0.22335500  0.16613500  1
  O  O10  1  0.59341300  0.57841100  0.77075200  1
  O  O11  1  0.99218700  0.26144100  0.96385000  1
  O  O12  1  0.50566600  0.77197400  0.47143800  1
  O  O13  1  0.15509100  0.72907600  0.66775400  1
  O  O14  1  0.45971900  0.93321000  0.11398700  1
  O  O15  1  0.07394200  0.42031500  0.60226200  1
loop_
_geom_bond_atom_site_label_1
_geom_bond_atom_site_label_2
_geom_bond_distance
_geom_bond_site_symmetry_2
Li0 O2 2.022283 1_555
Li0 O15 2.027096 1_555
Li0 O12 2.241377 1_555
Li0 O1 2.375465 1_555
Li1 O10 2.022283 1_555
Li1 O3 2.027096 1_556
Li1 O6 2.241377 1_555
Li1 O9 2.375465 1_556
Fe0 O0 1.987779 1_455
Fe0 O7 1.989061 1_555
Fe0 O3 2.043172 1_455
Fe0 O2 2.046602 1_555
Fe1 O4 1.887823 1_555
Fe1 O8 1.896190 1_545
Fe1 O6 1.943221 1_545
Fe1 O1 1.947737 1_555
Fe2 O5 1.887823 1_555
Fe2 O14 1.896190 1_545
Fe2 O12 1.943221 1_545
Fe2 O9 1.947737 1_555
Fe3 O13 1.987779 1_655
Fe3 O11 1.989061 1_555
Fe3 O15 2.043172 1_655
Fe3 O10 2.046602 1_555
O0 P1 1.521243 1_555
O1 P0 1.585273 1_555
O2 P1 1.556064 1_555
O3 P3 1.559701 1_655
O4 P0 1.559206 1_455
O5 P3 1.559206 1_655
O6 P1 1.586032 1_556
O7 P0 1.519661 1_455
O8 P2 1.558430 1_555
O9 P3 1.585273 1_555
O10 P2 1.556064 1_555
O11 P3 1.519661 1_656
O12 P2 1.586032 1_555
O13 P2 1.521243 1_555
O14 P1 1.558430 1_555
O15 P0 1.559701 1_455
