# generated using pymatgen
data_Li5MnO3F
_symmetry_space_group_name_H-M   'P 1'
_cell_length_a   7.54766911
_cell_length_b   7.54564980
_cell_length_c   9.21588176
_cell_angle_alpha   70.72898826
_cell_angle_beta   111.66261694
_cell_angle_gamma   81.59616299
_symmetry_Int_Tables_number   1
_chemical_formula_structural   Li5MnO3F
_chemical_formula_sum   'Li20 Mn4 O12 F4'
_cell_volume   438.45449874
_cell_formula_units_Z   4
loop_
 _symmetry_equiv_pos_site_id
 _symmetry_equiv_pos_as_xyz
  1  'x, y, z'
loop_
 _atom_site_type_symbol
 _atom_site_label
 _atom_site_symmetry_multiplicity
 _atom_site_fract_x
 _atom_site_fract_y
 _atom_site_fract_z
 _atom_site_occupancy
  Li  Li0  1  0.24326100  0.51823200  0.72502600  1
  Li  Li1  1  0.74327200  0.51822900  0.22503900  1
  Li  Li2  1  0.38175700  0.23178500  0.14998600  1
  Li  Li3  1  0.88169100  0.23176200  0.64994600  1
  Li  Li4  1  0.89926600  0.46861400  0.87458200  1
  Li  Li5  1  0.39930400  0.46854900  0.37460200  1
  Li  Li6  1  0.78188300  0.72532300  0.50044200  1
  Li  Li7  1  0.28183900  0.72534800  0.00036200  1
  Li  Li8  1  0.22576000  0.28141600  0.50044400  1
  Li  Li9  1  0.72571300  0.28144500  0.00036300  1
  Li  Li10  1  0.34319100  0.02468100  0.87458900  1
  Li  Li11  1  0.84313900  0.02470400  0.37460800  1
  Li  Li12  1  0.96835500  0.78536100  0.74224000  1
  Li  Li13  1  0.46847500  0.78521200  0.24225300  1
  Li  Li14  1  0.52756800  0.22609600  0.74224000  1
  Li  Li15  1  0.02742600  0.22620600  0.24224900  1
  Li  Li16  1  0.15659900  0.96476500  0.63277900  1
  Li  Li17  1  0.65662100  0.96472900  0.13273900  1
  Li  Li18  1  0.59754700  0.52382600  0.63279300  1
  Li  Li19  1  0.09747100  0.52388600  0.13275400  1
  Mn  Mn0  1  0.62895500  0.74927000  0.87966300  1
  Mn  Mn1  1  0.99635900  0.00097500  0.99534700  1
  Mn  Mn2  1  0.12885600  0.74914900  0.37968500  1
  Mn  Mn3  1  0.49564800  0.00054100  0.49510200  1
  O  O0  1  0.71301100  0.72454000  0.68751000  1
  O  O1  1  0.21307700  0.72454100  0.18750300  1
  O  O2  1  0.41199800  0.02542200  0.68751300  1
  O  O3  1  0.91199400  0.02549700  0.18749700  1
  O  O4  1  0.33866400  0.47684000  0.56346600  1
  O  O5  1  0.83865300  0.47679900  0.06350500  1
  O  O6  1  0.04028400  0.77517300  0.56347400  1
  O  O7  1  0.54028500  0.77512000  0.06350700  1
  O  O8  1  0.08482000  0.97491600  0.81155900  1
  O  O9  1  0.58472800  0.97482900  0.31149800  1
  O  O10  1  0.78641800  0.27318500  0.81157700  1
  O  O11  1  0.28626200  0.27316200  0.31151200  1
  F  F0  1  0.16814100  0.51924500  0.93750600  1
  F  F1  1  0.66823000  0.51914000  0.43752000  1
  F  F2  1  0.45677900  0.23070600  0.93750700  1
  F  F3  1  0.95669700  0.23078300  0.43751100  1
loop_
_geom_bond_atom_site_label_1
_geom_bond_atom_site_label_2
_geom_bond_distance
_geom_bond_site_symmetry_2
Li0 O6 1.965986 1_555
Li0 O4 1.966132 1_555
Li1 O7 1.965751 1_555
Li1 O5 1.965904 1_555
Li2 O9 1.965987 1_545
Li2 O11 1.966228 1_555
Li3 O8 1.966029 1_645
Li3 O10 1.966223 1_555
Li4 O10 1.950477 1_555
Li4 O5 1.973649 1_556
Li4 O0 1.974171 1_555
Li4 Li9 2.373897 1_556
Li5 O11 1.951129 1_555
Li5 O4 1.973461 1_555
Li5 O1 1.974482 1_555
Li5 Li8 2.373980 1_555
Li6 O6 1.950625 1_655
Li6 O9 1.973604 1_555
Li6 O0 1.974390 1_555
Li7 O7 1.950671 1_555
Li7 O8 1.973190 1_554
Li7 O1 1.974511 1_555
Li8 O4 1.950687 1_555
Li8 O11 1.973418 1_555
Li8 O2 1.974432 1_555
Li9 O5 1.950748 1_555
Li9 O10 1.972962 1_554
Li9 O3 1.974481 1_555
Li10 O8 1.950137 1_545
Li10 O7 1.973631 1_546
Li10 O2 1.974253 1_555
Li10 Li7 2.373479 1_546
Li10 Li16 2.384965 1_545
Li11 O9 1.950771 1_545
Li11 O6 1.973478 1_645
Li11 O3 1.974681 1_555
Li11 Li6 2.373542 1_545
Li11 Li17 2.385497 1_545
Li12 O6 1.935610 1_655
Li12 O8 1.944910 1_655
Li12 O0 1.967990 1_555
Li12 Li16 2.363860 1_655
Li12 Li6 2.385170 1_555
Li13 O7 1.934700 1_555
Li13 O9 1.944359 1_555
Li13 O1 1.967838 1_555
Li13 Li17 2.363905 1_555
Li13 Li7 2.385408 1_555
Li14 O4 1.935639 1_555
Li14 O10 1.944907 1_555
Li14 O2 1.968116 1_555
Li14 Li18 2.363860 1_555
Li14 Li8 2.385243 1_555
Li15 O5 1.934621 1_455
Li15 O11 1.944359 1_555
Li15 O3 1.967959 1_455
Li15 Li19 2.363888 1_555
Li15 Li9 2.385425 1_455
Li16 O8 1.934990 1_555
Li16 O6 1.944616 1_555
Li16 O2 1.967800 1_565
Li17 O9 1.935202 1_555
Li17 O7 1.944530 1_555
Li17 O3 1.968000 1_565
Li18 O10 1.935136 1_555
Li18 O4 1.944791 1_555
Li18 O0 1.967993 1_555
Li18 Li4 2.385039 1_555
Li19 O11 1.935274 1_555
Li19 O5 1.944666 1_455
Li19 O1 1.968180 1_555
Li19 Li5 2.385569 1_555
Mn0 O5 2.091031 1_556
Mn0 O7 2.091331 1_556
Mn0 O2 2.141365 1_565
Mn0 O0 2.141547 1_555
Mn1 O10 2.090281 1_555
Mn1 O8 2.090378 1_645
Mn1 O1 2.142060 1_646
Mn1 O3 2.142398 1_556
Mn2 O4 2.090437 1_555
Mn2 O6 2.090810 1_555
Mn2 O3 2.142087 1_465
Mn2 O1 2.142247 1_555
Mn3 O11 2.090500 1_555
Mn3 O9 2.090760 1_545
Mn3 O0 2.142202 1_545
Mn3 O2 2.142401 1_555
F0 Li4 2.025993 1_455
F0 Li7 2.026897 1_556
F0 Li19 2.065970 1_556
F0 Li12 2.066567 1_455
F0 Li2 2.232072 1_556
F0 Li0 2.232561 1_555
F1 Li5 2.026220 1_555
F1 Li6 2.027542 1_555
F1 Li13 2.066315 1_555
F1 Li18 2.066341 1_555
F1 Li3 2.231271 1_555
F1 Li1 2.232034 1_555
F2 Li10 2.026216 1_555
F2 Li9 2.026767 1_556
F2 Li17 2.065986 1_546
F2 Li14 2.066597 1_555
F2 Li0 2.232173 1_555
F2 Li2 2.232253 1_556
F3 Li11 2.026442 1_555
F3 Li8 2.027308 1_655
F3 Li15 2.066224 1_655
F3 Li16 2.066378 1_645
F3 Li3 2.231596 1_555
F3 Li1 2.231621 1_555
