# generated using pymatgen
data_Li2CuSiO4
_symmetry_space_group_name_H-M   'P 1'
_cell_length_a   5.04816600
_cell_length_b   6.15391600
_cell_length_c   10.84543400
_cell_angle_alpha   90.00000000
_cell_angle_beta   90.00000000
_cell_angle_gamma   90.00000000
_symmetry_Int_Tables_number   1
_chemical_formula_structural   Li2CuSiO4
_chemical_formula_sum   'Li8 Cu4 Si4 O16'
_cell_volume   336.92413896
_cell_formula_units_Z   4
loop_
 _symmetry_equiv_pos_site_id
 _symmetry_equiv_pos_as_xyz
  1  'x, y, z'
loop_
 _atom_site_type_symbol
 _atom_site_label
 _atom_site_symmetry_multiplicity
 _atom_site_fract_x
 _atom_site_fract_y
 _atom_site_fract_z
 _atom_site_occupancy
  Li  Li0  1  0.76008100  0.49777400  0.17287300  1
  Li  Li1  1  0.75946500  0.75432100  0.91421200  1
  Li  Li2  1  0.75946500  0.74567900  0.41421200  1
  Li  Li3  1  0.76008100  0.00222600  0.67287300  1
  Li  Li4  1  0.26008100  0.99777400  0.32712700  1
  Li  Li5  1  0.25946500  0.25432100  0.58578800  1
  Li  Li6  1  0.25946500  0.24567900  0.08578800  1
  Li  Li7  1  0.26008100  0.50222600  0.82712700  1
  Cu  Cu0  1  0.25223400  0.75664600  0.58269300  1
  Cu  Cu1  1  0.25223400  0.74335400  0.08269300  1
  Cu  Cu2  1  0.75223400  0.25664600  0.91730700  1
  Cu  Cu3  1  0.75223400  0.24335400  0.41730700  1
  Si  Si0  1  0.26395100  0.49460600  0.33708100  1
  Si  Si1  1  0.26395100  0.00539400  0.83708100  1
  Si  Si2  1  0.76395100  0.99460600  0.16291900  1
  Si  Si3  1  0.76395100  0.50539400  0.66291900  1
  O  O0  1  0.09053200  0.50374300  0.66488000  1
  O  O1  1  0.15798100  0.50372100  0.19286000  1
  O  O2  1  0.16023300  0.78480000  0.90974700  1
  O  O3  1  0.65877300  0.72834200  0.59282500  1
  O  O4  1  0.65877300  0.77165800  0.09282500  1
  O  O5  1  0.16023300  0.71520000  0.40974700  1
  O  O6  1  0.15798100  0.99627900  0.69286000  1
  O  O7  1  0.09053200  0.99625700  0.16488000  1
  O  O8  1  0.59053200  0.00374300  0.83512000  1
  O  O9  1  0.65798100  0.00372100  0.30714000  1
  O  O10  1  0.66023300  0.28480000  0.59025300  1
  O  O11  1  0.15877300  0.22834200  0.90717500  1
  O  O12  1  0.15877300  0.27165800  0.40717500  1
  O  O13  1  0.66023300  0.21520000  0.09025300  1
  O  O14  1  0.65798100  0.49627900  0.80714000  1
  O  O15  1  0.59053200  0.49625700  0.33512000  1
loop_
_geom_bond_atom_site_label_1
_geom_bond_atom_site_label_2
_geom_bond_distance
_geom_bond_site_symmetry_2
Li0 O15 1.956783 1_555
Li0 O4 1.963674 1_555
Li0 O13 2.020117 1_555
Li0 O1 2.020659 1_655
Li1 O8 1.954240 1_565
Li1 O4 2.005556 1_556
Li1 O2 2.032396 1_655
Li1 O14 2.032877 1_555
Li2 O15 1.954240 1_555
Li2 O3 2.005556 1_555
Li2 O5 2.032396 1_655
Li2 O9 2.032877 1_565
Li3 O8 1.956783 1_555
Li3 O3 1.963674 1_545
Li3 O10 2.020117 1_555
Li3 O6 2.020659 1_645
Li4 O7 1.956783 1_555
Li4 O12 1.963674 1_565
Li4 O5 2.020117 1_555
Li4 O9 2.020659 1_565
Li5 O0 1.954240 1_555
Li5 O12 2.005556 1_555
Li5 O10 2.032396 1_555
Li5 O6 2.032877 1_545
Li6 O7 1.954240 1_545
Li6 O11 2.005556 1_554
Li6 O13 2.032396 1_555
Li6 O1 2.032877 1_555
Li7 O0 1.956783 1_555
Li7 O11 1.963674 1_555
Li7 O2 2.020117 1_555
Li7 O14 2.020659 1_555
Cu0 O5 1.949079 1_555
Cu0 O6 1.956692 1_555
Cu0 O0 1.970548 1_555
Cu0 O3 2.062584 1_555
Cu1 O2 1.949079 1_554
Cu1 O1 1.956692 1_555
Cu1 O7 1.970548 1_555
Cu1 O4 2.062584 1_555
Cu2 O13 1.949079 1_556
Cu2 O14 1.956692 1_555
Cu2 O8 1.970548 1_555
Cu2 O11 2.062584 1_655
Cu3 O10 1.949079 1_555
Cu3 O9 1.956692 1_555
Cu3 O15 1.970548 1_555
Cu3 O12 2.062584 1_655
O0 Si3 1.648804 1_455
O1 Si0 1.654042 1_555
O2 Si1 1.654717 1_565
O3 Si3 1.655962 1_555
O4 Si2 1.655962 1_555
O5 Si0 1.654717 1_555
O6 Si1 1.654042 1_565
O7 Si2 1.648804 1_455
O8 Si1 1.648804 1_555
O9 Si2 1.654042 1_545
O10 Si3 1.654717 1_555
O11 Si1 1.655962 1_555
O12 Si0 1.655962 1_555
O13 Si2 1.654717 1_545
O14 Si3 1.654042 1_555
O15 Si0 1.648804 1_555
