# generated using pymatgen
data_LiMn3O6
_symmetry_space_group_name_H-M   'P 1'
_cell_length_a   5.85129000
_cell_length_b   6.59871226
_cell_length_c   13.17683381
_cell_angle_alpha   99.82550615
_cell_angle_beta   90.84178056
_cell_angle_gamma   115.26516554
_symmetry_Int_Tables_number   1
_chemical_formula_structural   LiMn3O6
_chemical_formula_sum   'Li4 Mn12 O24'
_cell_volume   451.16154688
_cell_formula_units_Z   4
loop_
 _symmetry_equiv_pos_site_id
 _symmetry_equiv_pos_as_xyz
  1  'x, y, z'
loop_
 _atom_site_type_symbol
 _atom_site_label
 _atom_site_symmetry_multiplicity
 _atom_site_fract_x
 _atom_site_fract_y
 _atom_site_fract_z
 _atom_site_occupancy
  Li  Li0  1  0.58662900  0.67716700  0.82184900  1
  Li  Li1  1  0.57978500  0.17895100  0.32112700  1
  Li  Li2  1  0.24072100  0.48842800  0.00812700  1
  Li  Li3  1  0.74974700  0.99185700  0.51250300  1
  Mn  Mn0  1  0.00875700  0.51864500  0.50780900  1
  Mn  Mn1  1  0.16793400  0.33712400  0.67025800  1
  Mn  Mn2  1  0.99357100  0.99526100  0.99888400  1
  Mn  Mn3  1  0.16973900  0.83388800  0.16620600  1
  Mn  Mn4  1  0.66806800  0.33705200  0.66952500  1
  Mn  Mn5  1  0.82978200  0.16564800  0.83091500  1
  Mn  Mn6  1  0.66959200  0.83466400  0.16660300  1
  Mn  Mn7  1  0.83654800  0.66741900  0.33283500  1
  Mn  Mn8  1  0.32044100  0.14048200  0.82503600  1
  Mn  Mn9  1  0.32242200  0.63738100  0.32497500  1
  Mn  Mn10  1  0.49558500  0.49678700  0.50315300  1
  Mn  Mn11  1  0.50875100  0.02655600  0.00609600  1
  O  O0  1  0.51734200  0.54386400  0.66874500  1
  O  O1  1  0.65543600  0.29425700  0.51574900  1
  O  O2  1  0.52295200  0.04689400  0.17109400  1
  O  O3  1  0.02009700  0.54925200  0.65766100  1
  O  O4  1  0.63974100  0.79875900  0.01548500  1
  O  O5  1  0.12298700  0.28713700  0.52197600  1
  O  O6  1  0.19062200  0.36883500  0.82168300  1
  O  O7  1  0.01948900  0.04178200  0.15197300  1
  O  O8  1  0.31724200  0.12681500  0.67391400  1
  O  O9  1  0.15363800  0.79562200  0.01652500  1
  O  O10  1  0.19477300  0.86475900  0.31610200  1
  O  O11  1  0.71236100  0.39168700  0.81540300  1
  O  O12  1  0.31787100  0.62180800  0.16123100  1
  O  O13  1  0.81541800  0.12354700  0.67654300  1
  O  O14  1  0.87091400  0.22340500  0.98245300  1
  O  O15  1  0.68749000  0.87480000  0.31648900  1
  O  O16  1  0.93400000  0.93159700  0.85056900  1
  O  O17  1  0.81916000  0.62618700  0.17975000  1
  O  O18  1  0.85900600  0.72582100  0.48334400  1
  O  O19  1  0.33476800  0.20827800  0.98235700  1
  O  O20  1  0.96116900  0.44807200  0.35504800  1
  O  O21  1  0.49146900  0.95407500  0.83572400  1
  O  O22  1  0.36118800  0.70830900  0.49436300  1
  O  O23  1  0.49273600  0.44850600  0.33867500  1
loop_
_geom_bond_atom_site_label_1
_geom_bond_atom_site_label_2
_geom_bond_distance
_geom_bond_site_symmetry_2
Li0 O16 1.985164 1_555
Li0 O0 2.018418 1_555
Li0 O21 2.107063 1_555
Li0 O11 2.286355 1_555
Li0 O6 2.341529 1_555
Li0 O4 2.513105 1_556
Li1 O2 1.980824 1_555
Li1 O23 2.028099 1_555
Li1 O20 2.156467 1_555
Li1 O10 2.310797 1_545
Li1 O15 2.338361 1_545
Li1 O1 2.522841 1_555
Li2 O12 2.019037 1_555
Li2 O14 2.097945 1_454
Li2 O19 2.120186 1_554
Li2 O9 2.277664 1_555
Li2 O4 2.344859 1_555
Li2 O6 2.421561 1_554
Li3 O18 2.091202 1_555
Li3 O13 2.150461 1_565
Li3 O5 2.204143 1_665
Li3 O22 2.219737 1_555
Li3 O1 2.280290 1_565
Li3 O15 2.540016 1_555
Mn0 O22 1.932261 1_555
Mn0 O5 1.944375 1_555
Mn0 O3 1.947496 1_555
Mn0 O20 1.974616 1_455
Mn0 O18 1.976189 1_455
Mn0 O1 1.980813 1_455
Mn1 O0 1.915999 1_555
Mn1 O5 1.920035 1_555
Mn1 O8 1.935974 1_555
Mn1 O13 1.952203 1_455
Mn1 O3 1.960583 1_555
Mn1 O6 1.966887 1_555
Mn2 O16 1.921493 1_555
Mn2 O19 1.931526 1_665
Mn2 O9 1.953978 1_656
Mn2 O4 1.958088 1_556
Mn2 O14 1.964015 1_565
Mn2 O7 1.981507 1_666
Mn3 O12 1.928689 1_555
Mn3 O2 1.933054 1_565
Mn3 O9 1.940863 1_555
Mn3 O10 1.947536 1_555
Mn3 O7 1.949997 1_565
Mn3 O17 1.952585 1_455
Mn4 O11 1.887094 1_555
Mn4 O0 1.916306 1_555
Mn4 O8 1.934369 1_555
Mn4 O13 1.953410 1_555
Mn4 O3 1.962173 1_655
Mn4 O1 1.993367 1_555
Mn5 O21 1.883234 1_545
Mn5 O11 1.926998 1_555
Mn5 O16 1.939080 1_545
Mn5 O14 1.959132 1_555
Mn5 O6 1.979172 1_655
Mn5 O13 2.001030 1_555
Mn6 O2 1.923514 1_565
Mn6 O12 1.925508 1_555
Mn6 O15 1.942562 1_555
Mn6 O17 1.947566 1_555
Mn6 O7 1.951842 1_665
Mn6 O4 1.960914 1_555
Mn7 O23 1.923948 1_555
Mn7 O20 1.936916 1_555
Mn7 O18 1.946088 1_555
Mn7 O15 1.947727 1_555
Mn7 O10 1.979770 1_655
Mn7 O17 1.984037 1_555
Mn8 O21 1.907894 1_545
Mn8 O6 1.961709 1_555
Mn8 O8 1.977364 1_555
Mn8 O19 2.037358 1_555
Mn8 O16 2.155494 1_445
Mn8 O11 2.204147 1_555
Mn9 O23 1.926340 1_555
Mn9 O10 1.958744 1_555
Mn9 O20 2.031058 1_455
Mn9 O15 2.059138 1_555
Mn9 O12 2.141712 1_555
Mn9 O22 2.188672 1_555
Mn10 O22 1.889304 1_555
Mn10 O1 1.956180 1_555
Mn10 O18 2.069240 1_555
Mn10 O5 2.070495 1_555
Mn10 O23 2.134879 1_555
Mn10 O0 2.144873 1_555
Mn11 O19 1.932058 1_554
Mn11 O4 1.976469 1_545
Mn11 O9 2.008873 1_545
Mn11 O14 2.020599 1_554
Mn11 O2 2.153471 1_555
Mn11 O21 2.205545 1_544
