# generated using pymatgen
data_Co(IO3)2
_symmetry_space_group_name_H-M   'P 1'
_cell_length_a   11.09334288
_cell_length_b   11.09334288
_cell_length_c   5.13910800
_cell_angle_alpha   90.00000000
_cell_angle_beta   90.00000000
_cell_angle_gamma   120.00000524
_symmetry_Int_Tables_number   1
_chemical_formula_structural   Co(IO3)2
_chemical_formula_sum   'Co4 I8 O24'
_cell_volume   547.70061248
_cell_formula_units_Z   4
loop_
 _symmetry_equiv_pos_site_id
 _symmetry_equiv_pos_as_xyz
  1  'x, y, z'
loop_
 _atom_site_type_symbol
 _atom_site_label
 _atom_site_symmetry_multiplicity
 _atom_site_fract_x
 _atom_site_fract_y
 _atom_site_fract_z
 _atom_site_occupancy
  Co  Co0  1  0.33653000  0.17533100  0.06642100  1
  Co  Co1  1  0.33333300  0.66666700  0.57324800  1
  Co  Co2  1  0.83880100  0.66347000  0.06642100  1
  Co  Co3  1  0.82466900  0.16119900  0.06642100  1
  I  I0  1  0.49862400  0.51403500  0.99708800  1
  I  I1  1  0.48596500  0.98459000  0.99708800  1
  I  I2  1  0.66666700  0.33333300  0.45925000  1
  I  I3  1  0.01541000  0.50137600  0.99708800  1
  I  I4  1  0.67913500  0.83336400  0.48584200  1
  I  I5  1  0.15422900  0.32086500  0.48584200  1
  I  I6  1  0.00000000  0.00000000  0.01125800  1
  I  I7  1  0.16663600  0.84577100  0.48584200  1
  O  O0  1  0.48049900  0.63828900  0.78273500  1
  O  O1  1  0.37513600  0.34849100  0.83742400  1
  O  O2  1  0.51191300  0.31910000  0.29664600  1
  O  O3  1  0.66092400  0.53604200  0.85417000  1
  O  O4  1  0.46395800  0.12488200  0.85417000  1
  O  O5  1  0.36171100  0.84220900  0.78273500  1
  O  O6  1  0.80718700  0.48808700  0.29664600  1
  O  O7  1  0.68090000  0.19281300  0.29664600  1
  O  O8  1  0.51044700  0.79670900  0.34802700  1
  O  O9  1  0.65150900  0.02664500  0.83742400  1
  O  O10  1  0.97335500  0.62486400  0.83742400  1
  O  O11  1  0.87511800  0.33907600  0.85417000  1
  O  O12  1  0.79527100  0.98798300  0.28929200  1
  O  O13  1  0.69983500  0.70351700  0.29683100  1
  O  O14  1  0.00368200  0.30016500  0.29683100  1
  O  O15  1  0.15779100  0.51950100  0.78273500  1
  O  O16  1  0.95232100  0.11510100  0.83404900  1
  O  O17  1  0.88489900  0.83722100  0.83404900  1
  O  O18  1  0.28626300  0.48955300  0.34802700  1
  O  O19  1  0.19271200  0.20472900  0.28929200  1
  O  O20  1  0.01201700  0.80728800  0.28929200  1
  O  O21  1  0.16277900  0.04767900  0.83404900  1
  O  O22  1  0.29648300  0.99631800  0.29683100  1
  O  O23  1  0.20329100  0.71373700  0.34802700  1
loop_
_geom_bond_atom_site_label_1
_geom_bond_atom_site_label_2
_geom_bond_distance
_geom_bond_site_symmetry_2
Co0 O4 2.071811 1_554
Co0 O21 2.101685 1_554
Co0 O1 2.106096 1_554
Co0 O19 2.117516 1_555
Co0 O2 2.150770 1_555
Co0 O22 2.158899 1_545
Co1 O5 2.106477 1_555
Co1 O15 2.106484 1_555
Co1 O0 2.106496 1_555
Co1 O23 2.108715 1_555
Co1 O8 2.108728 1_555
Co1 O18 2.108733 1_555
Co2 O3 2.071811 1_554
Co2 O17 2.101687 1_554
Co2 O10 2.106096 1_554
Co2 O20 2.117516 1_655
Co2 O6 2.150770 1_555
Co2 O13 2.158899 1_555
Co3 O11 2.071811 1_554
Co3 O16 2.101678 1_554
Co3 O9 2.106096 1_554
Co3 O12 2.117516 1_545
Co3 O7 2.150770 1_555
Co3 O14 2.158899 1_655
I0 O3 1.844213 1_555
I0 O1 1.845713 1_555
I0 O0 1.852303 1_555
I1 O4 1.844203 1_565
I1 O9 1.845716 1_565
I1 O5 1.852314 1_555
I2 O7 1.843725 1_555
I2 O6 1.843730 1_555
I2 O2 1.843735 1_555
I3 O11 1.844209 1_455
I3 O10 1.845706 1_455
I3 O15 1.852321 1_555
I4 O13 1.844418 1_555
I4 O8 1.846036 1_555
I4 O12 1.847252 1_555
I5 O14 1.844418 1_555
I5 O18 1.846039 1_555
I5 O19 1.847252 1_555
I6 O21 1.847918 1_554
I6 O17 1.847920 1_444
I6 O16 1.847927 1_454
I7 O22 1.844418 1_555
I7 O23 1.846046 1_555
I7 O20 1.847252 1_555
