# generated using pymatgen
data_Mn2O3F
_symmetry_space_group_name_H-M   'P 1'
_cell_length_a   4.59415455
_cell_length_b   4.59415455
_cell_length_c   15.16894900
_cell_angle_alpha   90.00000000
_cell_angle_beta   90.00000000
_cell_angle_gamma   92.86438367
_symmetry_Int_Tables_number   1
_chemical_formula_structural   Mn2O3F
_chemical_formula_sum   'Mn10 O15 F5'
_cell_volume   319.75971782
_cell_formula_units_Z   5
loop_
 _symmetry_equiv_pos_site_id
 _symmetry_equiv_pos_as_xyz
  1  'x, y, z'
loop_
 _atom_site_type_symbol
 _atom_site_label
 _atom_site_symmetry_multiplicity
 _atom_site_fract_x
 _atom_site_fract_y
 _atom_site_fract_z
 _atom_site_occupancy
  Mn  Mn0  1  0.98517600  0.01482400  0.20095600  1
  Mn  Mn1  1  0.00069100  0.99930900  0.40027300  1
  Mn  Mn2  1  0.00069100  0.99930900  0.59972700  1
  Mn  Mn3  1  0.98001500  0.01998500  0.00000000  1
  Mn  Mn4  1  0.98517600  0.01482400  0.79904400  1
  Mn  Mn5  1  0.51249500  0.48750500  0.10020600  1
  Mn  Mn6  1  0.47632700  0.52367300  0.50000000  1
  Mn  Mn7  1  0.51912200  0.48087800  0.30049200  1
  Mn  Mn8  1  0.51912200  0.48087800  0.69950800  1
  Mn  Mn9  1  0.51249500  0.48750500  0.89979400  1
  O  O0  1  0.80853100  0.19146900  0.69924800  1
  O  O1  1  0.80853100  0.19146900  0.30075200  1
  O  O2  1  0.80314400  0.19685600  0.09979300  1
  O  O3  1  0.80314400  0.19685600  0.90020700  1
  O  O4  1  0.30436500  0.31327800  0.59998000  1
  O  O5  1  0.30436500  0.31327800  0.40002000  1
  O  O6  1  0.31253000  0.29898700  0.20067000  1
  O  O7  1  0.30726500  0.30534300  0.00000000  1
  O  O8  1  0.31253000  0.29898700  0.79933000  1
  O  O9  1  0.68672200  0.69563500  0.59998000  1
  O  O10  1  0.68672200  0.69563500  0.40002000  1
  O  O11  1  0.70101300  0.68747000  0.20067000  1
  O  O12  1  0.69465700  0.69273500  0.00000000  1
  O  O13  1  0.70101300  0.68747000  0.79933000  1
  O  O14  1  0.18795200  0.81204800  0.50000000  1
  F  F0  1  0.77797300  0.22202700  0.50000000  1
  F  F1  1  0.21114200  0.78885800  0.29534500  1
  F  F2  1  0.19297300  0.80702700  0.10047400  1
  F  F3  1  0.21114200  0.78885800  0.70465500  1
  F  F4  1  0.19297300  0.80702700  0.89952600  1
loop_
_geom_bond_atom_site_label_1
_geom_bond_atom_site_label_2
_geom_bond_distance
_geom_bond_site_symmetry_2
Mn0 O1 1.916922 1_555
Mn0 O11 1.941611 1_545
Mn0 O6 1.941611 1_655
Mn0 O2 1.955362 1_555
Mn1 O5 1.955977 1_565
Mn1 O10 1.955977 1_455
Mn1 O14 1.960267 1_555
Mn1 O1 1.978785 1_465
Mn2 O4 1.955977 1_565
Mn2 O9 1.955977 1_455
Mn2 O14 1.960267 1_555
Mn2 O0 1.978785 1_465
Mn3 O2 1.917810 1_555
Mn3 O3 1.917810 1_554
Mn3 O12 1.944737 1_545
Mn3 O7 1.944737 1_655
Mn4 O0 1.916922 1_555
Mn4 O13 1.941611 1_545
Mn4 O8 1.941611 1_655
Mn4 O3 1.955362 1_555
Mn5 O2 1.934998 1_555
Mn5 O7 1.954725 1_555
Mn5 O12 1.954725 1_555
Mn5 O6 1.958802 1_555
Mn5 O11 1.958802 1_555
Mn6 O14 1.919849 1_555
Mn6 O5 1.944776 1_555
Mn6 O4 1.944776 1_555
Mn6 O10 1.944776 1_555
Mn6 O9 1.944776 1_555
Mn7 O1 1.926737 1_555
Mn7 O5 1.941565 1_555
Mn7 O10 1.941565 1_555
Mn7 O6 1.952595 1_555
Mn7 O11 1.952595 1_555
Mn8 O0 1.926737 1_555
Mn8 O4 1.941565 1_555
Mn8 O9 1.941565 1_555
Mn8 O8 1.952595 1_555
Mn8 O13 1.952595 1_555
Mn9 O3 1.934998 1_555
Mn9 O7 1.954725 1_556
Mn9 O12 1.954725 1_556
Mn9 O8 1.958802 1_555
Mn9 O13 1.958802 1_555
O4 O9 2.421351 1_555
O10 O5 2.421351 1_555
O12 O7 2.453237 1_555
F0 Mn6 2.008200 1_555
F0 Mn1 2.118240 1_645
F0 Mn2 2.118240 1_645
F0 O5 2.702071 1_555
F0 O4 2.702071 1_555
F0 O10 2.702071 1_555
F0 O9 2.702071 1_555
F1 Mn7 2.051855 1_555
F1 Mn0 2.076802 1_465
F1 Mn1 2.120459 1_555
F1 O11 2.729307 1_555
F1 O6 2.729307 1_555
F1 O10 2.751694 1_555
F1 O5 2.751694 1_555
F1 O6 2.768179 1_565
F1 O11 2.768179 1_455
F2 Mn0 2.058400 1_465
F2 Mn3 2.081558 1_465
F2 Mn5 2.127213 1_555
F2 O11 2.756057 1_455
F2 O6 2.756057 1_565
F2 O12 2.778395 1_455
F2 O7 2.778395 1_565
F2 O7 2.834018 1_555
F2 O12 2.834018 1_555
F2 O6 2.861370 1_555
F2 O11 2.861370 1_555
F3 Mn8 2.051855 1_555
F3 Mn4 2.076802 1_465
F3 Mn2 2.120459 1_555
F3 O8 2.729307 1_555
F3 O13 2.729307 1_555
F3 O9 2.751694 1_555
F3 O4 2.751694 1_555
F3 O8 2.768179 1_565
F3 O13 2.768179 1_455
F4 Mn4 2.058400 1_465
F4 Mn3 2.081558 1_466
F4 Mn9 2.127213 1_555
F4 O13 2.756057 1_455
F4 O8 2.756057 1_565
F4 O12 2.778395 1_456
F4 O7 2.778395 1_566
F4 O7 2.834018 1_556
F4 O12 2.834018 1_556
F4 O8 2.861370 1_555
F4 O13 2.861370 1_555
