# generated using pymatgen
data_Ga2HgO4
_symmetry_space_group_name_H-M   'P 1'
_cell_length_a   6.24820906
_cell_length_b   6.24820906
_cell_length_c   6.24820906
_cell_angle_alpha   60.00000000
_cell_angle_beta   60.00000000
_cell_angle_gamma   60.00000000
_symmetry_Int_Tables_number   1
_chemical_formula_structural   Ga2HgO4
_chemical_formula_sum   'Ga4 Hg2 O8'
_cell_volume   172.48512983
_cell_formula_units_Z   2
loop_
 _symmetry_equiv_pos_site_id
 _symmetry_equiv_pos_as_xyz
  1  'x, y, z'
loop_
 _atom_site_type_symbol
 _atom_site_label
 _atom_site_symmetry_multiplicity
 _atom_site_fract_x
 _atom_site_fract_y
 _atom_site_fract_z
 _atom_site_occupancy
  Ga  Ga0  1  0.12500000  0.12500000  0.62500000  1
  Ga  Ga1  1  0.12500000  0.62500000  0.12500000  1
  Ga  Ga2  1  0.62500000  0.12500000  0.12500000  1
  Ga  Ga3  1  0.12500000  0.12500000  0.12500000  1
  Hg  Hg0  1  0.75000000  0.75000000  0.75000000  1
  Hg  Hg1  1  0.50000000  0.50000000  0.50000000  1
  O  O0  1  0.89518200  0.89518200  0.89518200  1
  O  O1  1  0.31445300  0.89518200  0.89518200  1
  O  O2  1  0.35481800  0.35481800  0.93554700  1
  O  O3  1  0.35481800  0.93554700  0.35481800  1
  O  O4  1  0.89518200  0.31445300  0.89518200  1
  O  O5  1  0.89518200  0.89518200  0.31445300  1
  O  O6  1  0.93554700  0.35481800  0.35481800  1
  O  O7  1  0.35481800  0.35481800  0.35481800  1
loop_
_geom_bond_atom_site_label_1
_geom_bond_atom_site_label_2
_geom_bond_distance
_geom_bond_site_symmetry_2
Ga0 O1 2.046338 1_545
Ga0 O4 2.046338 1_455
Ga0 O3 2.046338 1_545
Ga0 O6 2.046338 1_455
Ga0 O7 2.046342 1_555
Ga0 O0 2.046342 1_445
Ga1 O1 2.046338 1_554
Ga1 O5 2.046338 1_455
Ga1 O2 2.046338 1_554
Ga1 O6 2.046338 1_455
Ga1 O7 2.046342 1_555
Ga1 O0 2.046342 1_454
Ga2 O4 2.046338 1_554
Ga2 O5 2.046338 1_545
Ga2 O2 2.046338 1_554
Ga2 O3 2.046338 1_545
Ga2 O7 2.046342 1_555
Ga2 O0 2.046342 1_544
Ga3 O2 2.046343 1_554
Ga3 O3 2.046343 1_545
Ga3 O6 2.046343 1_455
Ga3 O5 2.046343 1_445
Ga3 O4 2.046343 1_454
Ga3 O1 2.046343 1_544
Hg0 O0 2.221999 1_555
Hg0 O4 2.222005 1_555
Hg0 O5 2.222005 1_555
Hg0 O1 2.222005 1_555
Hg1 O7 2.221999 1_555
Hg1 O6 2.222005 1_555
Hg1 O3 2.222005 1_555
Hg1 O2 2.222005 1_555
