# generated using pymatgen
data_CaGeN2
_symmetry_space_group_name_H-M   'P 1'
_cell_length_a   5.25029255
_cell_length_b   5.25029317
_cell_length_c   5.25029279
_cell_angle_alpha   94.05217846
_cell_angle_beta   117.68870885
_cell_angle_gamma   117.68871226
_symmetry_Int_Tables_number   1
_chemical_formula_structural   CaGeN2
_chemical_formula_sum   'Ca2 Ge2 N4'
_cell_volume   105.62708412
_cell_formula_units_Z   2
loop_
 _symmetry_equiv_pos_site_id
 _symmetry_equiv_pos_as_xyz
  1  'x, y, z'
loop_
 _atom_site_type_symbol
 _atom_site_label
 _atom_site_symmetry_multiplicity
 _atom_site_fract_x
 _atom_site_fract_y
 _atom_site_fract_z
 _atom_site_occupancy
  Ca  Ca0  1  0.50000000  0.25000000  0.75000000  1
  Ca  Ca1  1  0.00000000  0.50000000  0.50000000  1
  Ge  Ge0  1  0.00000000  0.00000000  -0.00000000  1
  Ge  Ge1  1  0.50000000  0.75000000  0.25000000  1
  N  N0  1  0.58002564  0.87500000  0.95502564  1
  N  N1  1  0.91997436  0.04497436  0.62500000  1
  N  N2  1  0.41997436  0.37500000  0.29497436  1
  N  N3  1  0.08002564  0.70502564  0.12500000  1
loop_
_geom_bond_atom_site_label_1
_geom_bond_atom_site_label_2
_geom_bond_distance
_geom_bond_site_symmetry_2
Ca0 N1 2.420674 1_455
Ca0 N3 2.420674 1_656
Ca0 N2 2.420674 1_555
Ca0 N0 2.420674 1_545
Ca0 N3 3.146783 1_545
Ca0 N1 3.146783 1_555
Ca0 N2 3.146783 1_556
Ca0 N0 3.146783 1_555
Ca1 N0 2.420674 1_555
Ca1 N2 2.420674 1_455
Ca1 N3 2.420674 1_555
Ca1 N1 2.420674 1_455
Ca1 N2 3.146783 1_555
Ca1 N0 3.146783 1_444
Ca1 N3 3.146783 1_556
Ca1 N1 3.146783 1_465
Ge0 N0 1.870248 1_444
Ge0 N2 1.870248 1_555
Ge0 N1 1.870248 1_454
Ge0 N3 1.870248 1_545
Ge1 N1 1.870248 1_565
Ge1 N3 1.870248 1_555
Ge1 N0 1.870248 1_554
Ge1 N2 1.870248 1_555
