# generated using pymatgen
data_BaNa6O4
_symmetry_space_group_name_H-M   'P 1'
_cell_length_a   8.03037028
_cell_length_b   8.03037028
_cell_length_c   5.61166541
_cell_angle_alpha   90.00000000
_cell_angle_beta   90.00000000
_cell_angle_gamma   90.00000000
_symmetry_Int_Tables_number   1
_chemical_formula_structural   BaNa6O4
_chemical_formula_sum   'Ba2 Na12 O8'
_cell_volume   361.87860778
_cell_formula_units_Z   2
loop_
 _symmetry_equiv_pos_site_id
 _symmetry_equiv_pos_as_xyz
  1  'x, y, z'
loop_
 _atom_site_type_symbol
 _atom_site_label
 _atom_site_symmetry_multiplicity
 _atom_site_fract_x
 _atom_site_fract_y
 _atom_site_fract_z
 _atom_site_occupancy
  Ba  Ba0  1  0.50000000  0.50000000  0.00000000  1
  Ba  Ba1  1  0.00000000  0.00000000  0.50000000  1
  Na  Na0  1  0.28560642  0.28560642  0.50000000  1
  Na  Na1  1  0.71439358  0.28560642  0.50000000  1
  Na  Na2  1  0.00000000  0.50000000  0.48428730  1
  Na  Na3  1  0.00000000  0.50000000  0.98428730  1
  Na  Na4  1  0.28560642  0.71439358  0.50000000  1
  Na  Na5  1  0.71439358  0.71439358  0.50000000  1
  Na  Na6  1  0.78560642  0.78560642  0.00000000  1
  Na  Na7  1  0.21439358  0.78560642  0.00000000  1
  Na  Na8  1  0.50000000  0.00000000  0.01571270  1
  Na  Na9  1  0.50000000  0.00000000  0.51571270  1
  Na  Na10  1  0.78560642  0.21439358  0.00000000  1
  Na  Na11  1  0.21439358  0.21439358  0.00000000  1
  O  O0  1  0.00000000  0.27025884  0.73565540  1
  O  O1  1  0.77025884  0.50000000  0.23565540  1
  O  O2  1  0.22974116  0.50000000  0.23565540  1
  O  O3  1  0.00000000  0.72974116  0.73565540  1
  O  O4  1  0.50000000  0.77025884  0.76434460  1
  O  O5  1  0.72974116  0.00000000  0.26434460  1
  O  O6  1  0.27025884  0.00000000  0.26434460  1
  O  O7  1  0.50000000  0.22974116  0.76434460  1
loop_
_geom_bond_atom_site_label_1
_geom_bond_atom_site_label_2
_geom_bond_distance
_geom_bond_site_symmetry_2
Ba0 O2 2.541437 1_555
Ba0 O1 2.541437 1_555
Ba0 O7 2.541437 1_554
Ba0 O4 2.541437 1_554
Ba1 O6 2.541437 1_555
Ba1 O3 2.541437 1_545
Ba1 O0 2.541437 1_555
Ba1 O5 2.541437 1_455
Na0 O7 2.316438 1_555
Na0 O2 2.316438 1_555
Na0 O0 2.650328 1_555
Na0 O6 2.650328 1_555
Na0 Na2 2.869172 1_555
Na0 Na9 2.869172 1_555
Na0 Na11 2.920061 1_555
Na0 Na11 2.920061 1_556
Na1 O7 2.316438 1_555
Na1 O1 2.316438 1_555
Na1 O0 2.650328 1_655
Na1 O5 2.650328 1_555
Na1 Na2 2.869172 1_655
Na1 Na9 2.869172 1_555
Na1 Na10 2.920061 1_556
Na1 Na10 2.920061 1_555
Na2 O1 2.313087 1_455
Na2 O2 2.313087 1_555
Na2 O3 2.322381 1_555
Na2 O0 2.322381 1_555
Na2 Na3 2.805833 1_555
Na2 Na3 2.805833 1_554
Na2 Na4 2.869172 1_555
Na2 Na5 2.869172 1_455
Na3 O3 2.313087 1_555
Na3 O0 2.313087 1_555
Na3 O2 2.322381 1_556
Na3 O1 2.322381 1_456
Na3 Na6 2.869172 1_456
Na3 Na7 2.869172 1_556
Na4 O4 2.316438 1_555
Na4 O2 2.316438 1_555
Na4 O3 2.650328 1_555
Na4 O6 2.650328 1_565
Na4 Na9 2.869172 1_565
Na4 Na7 2.920061 1_555
Na4 Na7 2.920061 1_556
Na5 O4 2.316438 1_555
Na5 O1 2.316438 1_555
Na5 O3 2.650328 1_655
Na5 O5 2.650328 1_565
Na5 Na9 2.869172 1_565
Na5 Na6 2.920061 1_556
Na5 Na6 2.920061 1_555
Na6 O5 2.316438 1_565
Na6 O3 2.316438 1_654
Na6 O1 2.650328 1_555
Na6 O4 2.650328 1_554
Na6 Na8 2.869172 1_565
Na7 O6 2.316438 1_565
Na7 O3 2.316438 1_554
Na7 O2 2.650328 1_555
Na7 O4 2.650328 1_554
Na7 Na8 2.869172 1_565
Na8 O6 2.313087 1_555
Na8 O5 2.313087 1_555
Na8 O4 2.322381 1_544
Na8 O7 2.322381 1_554
Na8 Na9 2.805833 1_554
Na8 Na9 2.805833 1_555
Na9 O7 2.313087 1_555
Na9 O4 2.313087 1_545
Na9 O5 2.322381 1_555
Na9 O6 2.322381 1_555
Na10 O0 2.316438 1_654
Na10 O5 2.316438 1_555
Na10 O1 2.650328 1_555
Na10 O7 2.650328 1_554
Na10 Na3 2.869172 1_654
Na10 Na8 2.869172 1_555
Na11 O0 2.316438 1_554
Na11 O6 2.316438 1_555
Na11 O2 2.650328 1_555
Na11 O7 2.650328 1_554
Na11 Na3 2.869172 1_554
Na11 Na8 2.869172 1_555
