# generated using pymatgen
data_Li4CoO4
_symmetry_space_group_name_H-M   'P 1'
_cell_length_a   6.60487000
_cell_length_b   7.49565900
_cell_length_c   8.05750966
_cell_angle_alpha   89.60791864
_cell_angle_beta   90.00000000
_cell_angle_gamma   90.00000000
_symmetry_Int_Tables_number   1
_chemical_formula_structural   Li4CoO4
_chemical_formula_sum   'Li16 Co4 O16'
_cell_volume   398.90066573
_cell_formula_units_Z   4
loop_
 _symmetry_equiv_pos_site_id
 _symmetry_equiv_pos_as_xyz
  1  'x, y, z'
loop_
 _atom_site_type_symbol
 _atom_site_label
 _atom_site_symmetry_multiplicity
 _atom_site_fract_x
 _atom_site_fract_y
 _atom_site_fract_z
 _atom_site_occupancy
  Li  Li0  1  0.50000000  0.69536500  0.03461800  1
  Li  Li1  1  0.24915400  0.97295400  0.15128800  1
  Li  Li2  1  0.75084600  0.97295400  0.15128800  1
  Li  Li3  1  0.25938800  0.46865200  0.33458200  1
  Li  Li4  1  0.74061200  0.46865200  0.33458200  1
  Li  Li5  1  0.00000000  0.25183700  0.43694100  1
  Li  Li6  1  0.73506300  0.00709200  0.49141900  1
  Li  Li7  1  0.26493700  0.00709200  0.49141900  1
  Li  Li8  1  0.00000000  0.74913400  0.55656700  1
  Li  Li9  1  0.25020500  0.51187400  0.66058400  1
  Li  Li10  1  0.74979500  0.51187400  0.66058400  1
  Li  Li11  1  0.00000000  0.29117800  0.81977400  1
  Li  Li12  1  0.50000000  0.76391600  0.70327400  1
  Li  Li13  1  0.25369000  0.01605900  0.83428700  1
  Li  Li14  1  0.74631000  0.01605900  0.83428700  1
  Li  Li15  1  0.50000000  0.31720500  0.99073100  1
  Co  Co0  1  0.00000000  0.23339900  0.12711000  1
  Co  Co1  1  0.50000000  0.73738200  0.37745000  1
  Co  Co2  1  0.50000000  0.26310900  0.63237200  1
  Co  Co3  1  0.00000000  0.75985600  0.87241900  1
  O  O0  1  0.21952200  0.20565600  0.99553600  1
  O  O1  1  0.78047800  0.20565600  0.99553600  1
  O  O2  1  0.00000000  0.42743100  0.25078200  1
  O  O3  1  0.50000000  0.55565700  0.23282000  1
  O  O4  1  0.00000000  0.04826700  0.28315700  1
  O  O5  1  0.50000000  0.95672000  0.28941800  1
  O  O6  1  0.28378400  0.71939500  0.51376200  1
  O  O7  1  0.71621600  0.71939500  0.51376200  1
  O  O8  1  0.26440500  0.28990800  0.52265700  1
  O  O9  1  0.73559500  0.28990800  0.52265700  1
  O  O10  1  0.50000000  0.03157900  0.69892200  1
  O  O11  1  0.00000000  0.95240300  0.71426000  1
  O  O12  1  0.50000000  0.45191400  0.77430300  1
  O  O13  1  0.00000000  0.55241600  0.75870300  1
  O  O14  1  0.24127400  0.79841700  0.96907300  1
  O  O15  1  0.75872600  0.79841700  0.96907300  1
loop_
_geom_bond_atom_site_label_1
_geom_bond_atom_site_label_2
_geom_bond_distance
_geom_bond_site_symmetry_2
Li0 O3 1.903734 1_555
Li0 O14 1.946838 1_554
Li0 O15 1.946838 1_554
Li0 Li12 2.715350 1_554
Li1 O14 1.973873 1_554
Li1 O5 1.999172 1_555
Li1 O4 2.040581 1_565
Li1 O0 2.150751 1_564
Li1 Li7 2.756244 1_565
Li2 O15 1.973873 1_554
Li2 O5 1.999172 1_555
Li2 O4 2.040581 1_665
Li2 O1 2.150751 1_564
Li2 Li6 2.756244 1_565
Li3 O2 1.867988 1_555
Li3 O3 1.901552 1_555
Li3 O8 2.016153 1_555
Li3 O6 2.383267 1_555
Li4 O2 1.867988 1_655
Li4 O3 1.901552 1_555
Li4 O9 2.016153 1_555
Li4 O7 2.383267 1_555
Li5 O9 1.900241 1_455
Li5 O8 1.900241 1_555
Li5 O4 1.972214 1_555
Li5 O2 1.988788 1_555
Li5 Li7 2.570837 1_555
Li5 Li6 2.570837 1_455
Li6 O9 2.136495 1_555
Li6 O7 2.166332 1_545
Li6 O5 2.282669 1_545
Li6 O10 2.289929 1_555
Li6 O4 2.442572 1_655
Li6 O11 2.538505 1_645
Li6 Li8 2.657517 1_645
Li7 O8 2.136495 1_555
Li7 O6 2.166332 1_545
Li7 O5 2.282669 1_545
Li7 O10 2.289929 1_555
Li7 O4 2.442572 1_555
Li7 O11 2.538505 1_545
Li7 Li8 2.657517 1_545
Li8 O6 1.919091 1_555
Li8 O7 1.919091 1_455
Li8 O11 1.990582 1_555
Li8 O13 2.189538 1_555
Li9 O13 1.857867 1_555
Li9 O12 1.938556 1_555
Li9 O6 1.960393 1_555
Li9 O8 2.009320 1_555
Li10 O13 1.857867 1_655
Li10 O12 1.938556 1_555
Li10 O7 1.960393 1_555
Li10 O9 2.009320 1_555
Li10 Li12 2.533460 1_555
Li10 Li11 2.661539 1_655
Li11 O13 2.015766 1_555
Li11 O0 2.122828 1_555
Li11 O1 2.122828 1_455
Li11 Li13 2.659067 1_555
Li11 Li14 2.659067 1_455
Li11 Li9 2.661539 1_555
Li11 O11 2.683395 1_545
Li12 O10 2.006377 1_565
Li12 O7 2.118835 1_555
Li12 O6 2.118835 1_555
Li12 O12 2.403864 1_555
Li12 Li9 2.533460 1_555
Li12 O14 2.753437 1_555
Li12 O15 2.753437 1_555
Li13 O0 1.945243 1_555
Li13 O14 1.955333 1_545
Li13 O10 1.961647 1_555
Li13 O11 1.994217 1_545
Li14 O1 1.945243 1_555
Li14 O15 1.955333 1_545
Li14 O10 1.961647 1_555
Li14 O11 1.994217 1_645
Li15 O12 2.009116 1_555
Li15 O1 2.032734 1_555
Li15 O0 2.032734 1_555
Li15 O3 2.654680 1_556
Co0 O2 1.768643 1_555
Co0 O0 1.808991 1_554
Co0 O1 1.808991 1_454
Co0 O4 1.866206 1_555
Co0 Li11 2.511028 1_554
Co1 O5 1.786108 1_555
Co1 O3 1.798675 1_555
Co1 O7 1.806073 1_555
Co1 O6 1.806073 1_555
Co2 O8 1.800221 1_555
Co2 O9 1.800221 1_555
Co2 O10 1.812915 1_555
Co2 O12 1.825606 1_555
Co3 O15 1.797957 1_455
Co3 O14 1.797957 1_555
Co3 O13 1.810182 1_555
Co3 O11 1.918817 1_555
