# generated using pymatgen
data_Li32Mn3Cr13O48
_symmetry_space_group_name_H-M   'P 1'
_cell_length_a   5.03711500
_cell_length_b   8.72059262
_cell_length_c   19.50966394
_cell_angle_alpha   97.95031795
_cell_angle_beta   94.85397402
_cell_angle_gamma   89.53627888
_symmetry_Int_Tables_number   1
_chemical_formula_structural   Li32Mn3Cr13O48
_chemical_formula_sum   'Li32 Mn3 Cr13 O48'
_cell_volume   845.70699745
_cell_formula_units_Z   1
loop_
 _symmetry_equiv_pos_site_id
 _symmetry_equiv_pos_as_xyz
  1  'x, y, z'
loop_
 _atom_site_type_symbol
 _atom_site_label
 _atom_site_symmetry_multiplicity
 _atom_site_fract_x
 _atom_site_fract_y
 _atom_site_fract_z
 _atom_site_occupancy
  Li  Li0  1  0.98963500  0.16964300  0.25003400  1
  Li  Li1  1  0.87511400  0.37503000  0.37508500  1
  Li  Li2  1  0.75095900  0.25003100  0.00006900  1
  Li  Li3  1  0.74380900  0.92095300  0.99976100  1
  Li  Li4  1  0.99209800  0.16896400  0.74954300  1
  Li  Li5  1  0.76071900  0.57943700  0.49964300  1
  Li  Li6  1  0.87426400  0.37514300  0.87491100  1
  Li  Li7  1  0.75259100  0.24969900  0.50024500  1
  Li  Li8  1  0.74197900  0.92079900  0.49951500  1
  Li  Li9  1  0.62682200  0.12646300  0.12469800  1
  Li  Li10  1  0.75952600  0.57939800  0.99976900  1
  Li  Li11  1  0.51229500  0.33157800  0.25019600  1
  Li  Li12  1  0.62459100  0.12578700  0.62474200  1
  Li  Li13  1  0.50192500  0.00013200  0.25065200  1
  Li  Li14  1  0.48960400  0.66829300  0.24933800  1
  Li  Li15  1  0.50759300  0.32964400  0.74968900  1
  Li  Li16  1  0.37477100  0.87408100  0.37495500  1
  Li  Li17  1  0.50349500  0.00150500  0.75056300  1
  Li  Li18  1  0.25277600  0.74911500  0.99947100  1
  Li  Li19  1  0.48988100  0.66912600  0.74982200  1
  Li  Li20  1  0.23929400  0.42087800  0.00021800  1
  Li  Li21  1  0.37484600  0.87395400  0.87487600  1
  Li  Li22  1  0.25440300  0.08054000  0.50034700  1
  Li  Li23  1  0.25344400  0.74940000  0.49960500  1
  Li  Li24  1  0.12324400  0.62339800  0.12516600  1
  Li  Li25  1  0.24051900  0.41987300  0.50044100  1
  Li  Li26  1  0.00795100  0.83052500  0.25059900  1
  Li  Li27  1  0.25361700  0.07897100  0.99995900  1
  Li  Li28  1  0.12269300  0.62328000  0.62523300  1
  Li  Li29  1  0.99946100  0.50052500  0.24957600  1
  Li  Li30  1  0.00718400  0.83053300  0.75076100  1
  Li  Li31  1  0.99837900  0.50098300  0.74922900  1
  Mn  Mn0  1  0.87461800  0.04208700  0.37452500  1
  Mn  Mn1  1  0.87358500  0.04164900  0.87422700  1
  Mn  Mn2  1  0.12364700  0.29005900  0.62435900  1
  Cr  Cr0  1  0.87451800  0.71231900  0.37529300  1
  Cr  Cr1  1  0.87640800  0.71210100  0.87535600  1
  Cr  Cr2  1  0.62838400  0.79741400  0.12594700  1
  Cr  Cr3  1  0.61956300  0.46167800  0.12534500  1
  Cr  Cr4  1  0.63093900  0.79700600  0.62643900  1
  Cr  Cr5  1  0.61690600  0.45823600  0.62450800  1
  Cr  Cr6  1  0.38086300  0.53849200  0.37559500  1
  Cr  Cr7  1  0.36847700  0.20526600  0.37462500  1
  Cr  Cr8  1  0.38273200  0.53915500  0.87577700  1
  Cr  Cr9  1  0.36610400  0.20612700  0.87462500  1
  Cr  Cr10  1  0.12208200  0.95236900  0.12410400  1
  Cr  Cr11  1  0.13019700  0.28813100  0.12471600  1
  Cr  Cr12  1  0.12710600  0.95393100  0.62510800  1
  O  O0  1  0.96347300  0.10238400  0.06869200  1
  O  O1  1  0.93668000  0.78740600  0.06874600  1
  O  O2  1  0.92619900  0.42682600  0.06797200  1
  O  O3  1  0.96341300  0.10758000  0.56955400  1
  O  O4  1  0.81351600  0.96283900  0.18128300  1
  O  O5  1  0.82395500  0.32375400  0.18210700  1
  O  O6  1  0.93744300  0.79052300  0.56891900  1
  O  O7  1  0.93006100  0.42756600  0.56772600  1
  O  O8  1  0.78584600  0.64788000  0.18140600  1
  O  O9  1  0.71245600  0.85940400  0.31915300  1
  O  O10  1  0.81463800  0.96269300  0.68156700  1
  O  O11  1  0.82330900  0.32419800  0.68165400  1
  O  O12  1  0.67094100  0.53717300  0.31911400  1
  O  O13  1  0.68108100  0.17804000  0.31772500  1
  O  O14  1  0.78331700  0.64564700  0.68149100  1
  O  O15  1  0.71166600  0.85931000  0.81918200  1
  O  O16  1  0.46820900  0.60603700  0.06962000  1
  O  O17  1  0.58133500  0.71457000  0.43139700  1
  O  O18  1  0.57393500  0.07350000  0.43161400  1
  O  O19  1  0.67160300  0.53745900  0.81902800  1
  O  O20  1  0.68052100  0.17836400  0.81796500  1
  O  O21  1  0.43376100  0.92327600  0.06718000  1
  O  O22  1  0.41846500  0.28440700  0.06853600  1
  O  O23  1  0.53250600  0.39285700  0.43130100  1
  O  O24  1  0.47130300  0.60578000  0.56948000  1
  O  O25  1  0.57998500  0.71508400  0.93144700  1
  O  O26  1  0.57365000  0.07369200  0.93163200  1
  O  O27  1  0.31627600  0.82670800  0.18285600  1
  O  O28  1  0.33068200  0.46589800  0.18143600  1
  O  O29  1  0.43476400  0.92270700  0.56727100  1
  O  O30  1  0.42429500  0.28348000  0.56874100  1
  O  O31  1  0.53217400  0.39466000  0.93155000  1
  O  O32  1  0.28175200  0.14370200  0.18044300  1
  O  O33  1  0.21927000  0.35321600  0.31872100  1
  O  O34  1  0.31718900  0.82661500  0.68310200  1
  O  O35  1  0.32074500  0.46286600  0.68056800  1
  O  O36  1  0.17106900  0.67651800  0.31797100  1
  O  O37  1  0.17564700  0.03456800  0.31881600  1
  O  O38  1  0.28519700  0.14293700  0.68053800  1
  O  O39  1  0.21940600  0.35263500  0.81890400  1
  O  O40  1  0.07854900  0.57326200  0.43243100  1
  O  O41  1  0.06812200  0.21355600  0.43038500  1
  O  O42  1  0.17165400  0.67548100  0.81795900  1
  O  O43  1  0.17456600  0.03348300  0.81883700  1
  O  O44  1  0.03733500  0.89559200  0.43099400  1
  O  O45  1  0.07666200  0.57240000  0.93239400  1
  O  O46  1  0.06936400  0.21315500  0.93046100  1
  O  O47  1  0.03640300  0.89461000  0.93086900  1
loop_
_geom_bond_atom_site_label_1
_geom_bond_atom_site_label_2
_geom_bond_distance
_geom_bond_site_symmetry_2
Li0 O37 2.067070 1_655
Li0 O32 2.075415 1_655
Li0 O13 2.117497 1_555
Li0 O5 2.132194 1_555
Li0 O33 2.206965 1_655
Li0 O4 2.234708 1_545
Li1 O41 2.076692 1_655
Li1 O12 2.112578 1_555
Li1 O13 2.113984 1_555
Li1 O23 2.115202 1_555
Li1 O33 2.123679 1_655
Li1 O40 2.142386 1_655
Li2 O2 2.042134 1_555
Li2 O26 2.048805 1_554
Li2 O46 2.181607 1_654
Li2 O31 2.187883 1_554
Li2 O0 2.192748 1_555
Li2 O22 2.222349 1_555
Li3 O47 2.067798 1_655
Li3 O1 2.074977 1_556
Li3 O21 2.123510 1_556
Li3 O26 2.134003 1_565
Li3 O0 2.173489 1_566
Li3 O25 2.203706 1_555
Li4 O43 2.069366 1_655
Li4 O38 2.071240 1_655
Li4 O20 2.138696 1_555
Li4 O11 2.143950 1_555
Li4 O39 2.208065 1_655
Li4 O10 2.226882 1_545
Li5 O17 2.047231 1_555
Li5 O24 2.068466 1_555
Li5 O7 2.126635 1_555
Li5 O40 2.149357 1_655
Li5 O23 2.217515 1_555
Li5 O6 2.267668 1_555
Li6 O46 2.087256 1_655
Li6 O20 2.108955 1_555
Li6 O19 2.109392 1_555
Li6 O31 2.117713 1_555
Li6 O39 2.124041 1_655
Li6 O45 2.134808 1_655
Li7 O7 2.048581 1_555
Li7 O18 2.052564 1_555
Li7 O3 2.165972 1_555
Li7 O41 2.173177 1_655
Li7 O23 2.187814 1_555
Li7 O30 2.205532 1_555
Li8 O6 2.067690 1_555
Li8 O44 2.073351 1_655
Li8 O29 2.117087 1_555
Li8 O18 2.127120 1_565
Li8 O17 2.199023 1_555
Li8 O3 2.218141 1_565
Li9 O0 2.087558 1_555
Li9 O4 2.092235 1_545
Li9 O22 2.097298 1_555
Li9 O32 2.120624 1_555
Li9 O5 2.122959 1_555
Li9 O21 2.153550 1_545
Li10 O25 2.051754 1_555
Li10 O16 2.075979 1_556
Li10 O2 2.127975 1_556
Li10 O45 2.148249 1_655
Li10 O31 2.203869 1_555
Li10 O1 2.246190 1_556
Li11 O28 2.053817 1_555
Li11 O33 2.064251 1_555
Li11 O13 2.128688 1_555
Li11 O5 2.135388 1_555
Li11 O12 2.198970 1_555
Li11 O32 2.243075 1_555
Li12 O30 2.075892 1_555
Li12 O3 2.087240 1_555
Li12 O38 2.096596 1_555
Li12 O10 2.098306 1_545
Li12 O11 2.130041 1_555
Li12 O29 2.145809 1_545
Li13 O27 2.042400 1_545
Li13 O13 2.048165 1_555
Li13 O9 2.146982 1_545
Li13 O4 2.151793 1_545
Li13 O37 2.193447 1_555
Li13 O32 2.206485 1_555
Li14 O12 2.048952 1_555
Li14 O8 2.068813 1_555
Li14 O27 2.153496 1_555
Li14 O28 2.169700 1_555
Li14 O36 2.169712 1_555
Li14 O9 2.244202 1_555
Li15 O39 2.055003 1_555
Li15 O35 2.062755 1_555
Li15 O20 2.131821 1_555
Li15 O11 2.152139 1_555
Li15 O38 2.211823 1_555
Li15 O19 2.225704 1_555
Li16 O9 2.089540 1_555
Li16 O44 2.090952 1_555
Li16 O37 2.092779 1_565
Li16 O17 2.106310 1_555
Li16 O18 2.135751 1_565
Li16 O36 2.136064 1_555
Li17 O20 2.041041 1_555
Li17 O34 2.048862 1_545
Li17 O10 2.145981 1_545
Li17 O15 2.151744 1_545
Li17 O38 2.187841 1_555
Li17 O43 2.204635 1_555
Li18 O45 2.035232 1_555
Li18 O21 2.036273 1_556
Li18 O1 2.168872 1_456
Li18 O47 2.188508 1_555
Li18 O16 2.192382 1_556
Li18 O25 2.195260 1_555
Li19 O19 2.044985 1_555
Li19 O14 2.063218 1_555
Li19 O34 2.149617 1_555
Li19 O42 2.162965 1_555
Li19 O35 2.223609 1_555
Li19 O15 2.232300 1_555
Li20 O22 2.055538 1_555
Li20 O31 2.065852 1_554
Li20 O45 2.109670 1_554
Li20 O2 2.137694 1_455
Li20 O16 2.220649 1_555
Li20 O46 2.238797 1_554
Li21 O15 2.084583 1_555
Li21 O43 2.088021 1_565
Li21 O47 2.094712 1_555
Li21 O25 2.100500 1_555
Li21 O26 2.137737 1_565
Li21 O42 2.140318 1_555
Li22 O3 2.065995 1_455
Li22 O41 2.071874 1_555
Li22 O29 2.168121 1_545
Li22 O18 2.175631 1_555
Li22 O44 2.191363 1_545
Li22 O30 2.196103 1_555
Li23 O40 2.030433 1_555
Li23 O29 2.031615 1_555
Li23 O6 2.170667 1_455
Li23 O44 2.192054 1_555
Li23 O24 2.197315 1_555
Li23 O17 2.200668 1_555
Li24 O1 2.092614 1_455
Li24 O8 2.093496 1_455
Li24 O28 2.093613 1_555
Li24 O2 2.116546 1_455
Li24 O16 2.117941 1_555
Li24 O27 2.155539 1_555
Li25 O30 2.063760 1_555
Li25 O23 2.068919 1_555
Li25 O7 2.120037 1_455
Li25 O40 2.122632 1_555
Li25 O24 2.226072 1_555
Li25 O41 2.236843 1_555
Li26 O9 2.074935 1_455
Li26 O4 2.075719 1_455
Li26 O36 2.119952 1_555
Li26 O27 2.119960 1_555
Li26 O8 2.188459 1_455
Li26 O37 2.197715 1_565
Li27 O0 2.055942 1_456
Li27 O46 2.068196 1_555
Li27 O21 2.158250 1_546
Li27 O26 2.173311 1_555
Li27 O47 2.185919 1_545
Li27 O22 2.205013 1_556
Li28 O35 2.080996 1_555
Li28 O14 2.101888 1_455
Li28 O7 2.103828 1_455
Li28 O6 2.110125 1_455
Li28 O24 2.136097 1_555
Li28 O34 2.160056 1_555
Li29 O36 2.035432 1_655
Li29 O5 2.038223 1_555
Li29 O8 2.187717 1_555
Li29 O28 2.213178 1_655
Li29 O33 2.213489 1_655
Li29 O12 2.220910 1_555
Li30 O10 2.069309 1_455
Li30 O15 2.073215 1_455
Li30 O34 2.125428 1_555
Li30 O42 2.126456 1_555
Li30 O43 2.188964 1_565
Li30 O14 2.205967 1_455
Li31 O42 2.033331 1_655
Li31 O11 2.038505 1_555
Li31 O14 2.169868 1_555
Li31 O35 2.185818 1_655
Li31 O19 2.217190 1_555
Li31 O39 2.228893 1_655
Mn0 O44 1.933171 1_645
Mn0 O37 1.934521 1_655
Mn0 O13 1.935431 1_555
Mn0 O41 1.940803 1_655
Mn0 O9 1.941098 1_545
Mn0 O18 1.950350 1_555
Mn1 O43 1.930172 1_655
Mn1 O20 1.932510 1_555
Mn1 O15 1.935797 1_545
Mn1 O47 1.938964 1_645
Mn1 O46 1.949344 1_655
Mn1 O26 1.951373 1_555
Mn2 O38 1.931501 1_555
Mn2 O3 1.931596 1_455
Mn2 O30 1.932247 1_555
Mn2 O7 1.942892 1_455
Mn2 O11 1.952853 1_455
Mn2 O35 1.960112 1_555
Cr0 O17 1.909592 1_555
Cr0 O9 1.931739 1_555
Cr0 O36 1.938566 1_655
Cr0 O44 1.948814 1_655
Cr0 O40 1.982249 1_655
Cr0 O12 1.989411 1_555
Cr1 O25 1.922399 1_555
Cr1 O42 1.934651 1_655
Cr1 O47 1.936964 1_655
Cr1 O15 1.937973 1_555
Cr1 O45 1.976146 1_655
Cr1 O19 1.990474 1_555
Cr2 O4 1.880639 1_555
Cr2 O21 1.902832 1_555
Cr2 O8 1.930959 1_555
Cr2 O1 1.982102 1_555
Cr2 O27 1.994988 1_555
Cr2 O16 2.002071 1_555
Cr3 O16 1.889658 1_555
Cr3 O28 1.890437 1_555
Cr3 O5 1.971918 1_555
Cr3 O8 1.977420 1_555
Cr3 O2 1.980356 1_555
Cr3 O22 2.001419 1_555
Cr4 O10 1.877233 1_555
Cr4 O29 1.910514 1_555
Cr4 O14 1.929042 1_555
Cr4 O6 1.979994 1_555
Cr4 O34 1.999123 1_555
Cr4 O24 2.005050 1_555
Cr5 O24 1.891980 1_555
Cr5 O35 1.919954 1_555
Cr5 O30 1.958100 1_555
Cr5 O11 1.958290 1_555
Cr5 O14 1.992852 1_555
Cr5 O7 1.998466 1_555
Cr6 O23 1.898208 1_555
Cr6 O12 1.902117 1_555
Cr6 O40 1.955929 1_555
Cr6 O33 1.968953 1_555
Cr6 O17 1.984770 1_555
Cr6 O36 1.995526 1_555
Cr7 O33 1.911522 1_555
Cr7 O41 1.931995 1_555
Cr7 O37 1.934145 1_555
Cr7 O18 1.940888 1_555
Cr7 O23 1.987050 1_555
Cr7 O13 1.996242 1_555
Cr8 O31 1.887792 1_555
Cr8 O19 1.900266 1_555
Cr8 O45 1.968092 1_555
Cr8 O25 1.975277 1_555
Cr8 O39 1.980305 1_555
Cr8 O42 1.990915 1_555
Cr9 O39 1.895561 1_555
Cr9 O46 1.918383 1_555
Cr9 O43 1.942851 1_555
Cr9 O26 1.950057 1_555
Cr9 O31 1.999055 1_555
Cr9 O20 2.001220 1_555
Cr10 O1 1.878656 1_455
Cr10 O27 1.900503 1_555
Cr10 O0 1.935610 1_465
Cr10 O4 1.982807 1_455
Cr10 O21 1.993286 1_555
Cr10 O32 2.000950 1_565
Cr11 O22 1.889320 1_555
Cr11 O32 1.890490 1_555
Cr11 O0 1.975016 1_455
Cr11 O2 1.975379 1_455
Cr11 O5 1.979406 1_455
Cr11 O28 2.002315 1_555
Cr12 O6 1.886201 1_455
Cr12 O34 1.891184 1_555
Cr12 O3 1.970418 1_465
Cr12 O38 1.975536 1_565
Cr12 O29 1.988238 1_555
Cr12 O10 1.991125 1_455
