# generated using pymatgen
data_LiFeOF2
_symmetry_space_group_name_H-M   'P 1'
_cell_length_a   5.29702900
_cell_length_b   8.95536117
_cell_length_c   9.86519742
_cell_angle_alpha   89.71953195
_cell_angle_beta   81.49254801
_cell_angle_gamma   89.89808731
_symmetry_Int_Tables_number   1
_chemical_formula_structural   LiFeOF2
_chemical_formula_sum   'Li8 Fe8 O8 F16'
_cell_volume   462.81838068
_cell_formula_units_Z   8
loop_
 _symmetry_equiv_pos_site_id
 _symmetry_equiv_pos_as_xyz
  1  'x, y, z'
loop_
 _atom_site_type_symbol
 _atom_site_label
 _atom_site_symmetry_multiplicity
 _atom_site_fract_x
 _atom_site_fract_y
 _atom_site_fract_z
 _atom_site_occupancy
  Li  Li0  1  0.80281100  0.59774700  0.80257200  1
  Li  Li1  1  0.19120000  0.89971800  0.69435900  1
  Li  Li2  1  0.29928600  0.40905200  0.80522100  1
  Li  Li3  1  0.69125200  0.08397900  0.69688700  1
  Li  Li4  1  0.31756400  0.90931200  0.31815500  1
  Li  Li5  1  0.67606700  0.59401500  0.19019400  1
  Li  Li6  1  0.82450200  0.08610900  0.31653200  1
  Li  Li7  1  0.17752500  0.41069200  0.17839400  1
  Fe  Fe0  1  0.76201000  0.26986900  0.98375500  1
  Fe  Fe1  1  0.75774000  0.90675100  0.98285300  1
  Fe  Fe2  1  0.25872100  0.09384300  0.98082800  1
  Fe  Fe3  1  0.26035800  0.73351400  0.98616300  1
  Fe  Fe4  1  0.25939500  0.23402800  0.50760000  1
  Fe  Fe5  1  0.25963700  0.59831600  0.51156300  1
  Fe  Fe6  1  0.73618700  0.42943900  0.50276600  1
  Fe  Fe7  1  0.73368200  0.75854300  0.50896400  1
  O  O0  1  0.12034600  0.91388400  0.90038200  1
  O  O1  1  0.62162700  0.09009800  0.90313700  1
  O  O2  1  0.60024700  0.75359900  0.89936800  1
  O  O3  1  0.09828700  0.24718200  0.89870400  1
  O  O4  1  0.40013300  0.74626300  0.61003500  1
  O  O5  1  0.37971800  0.40609600  0.59986700  1
  O  O6  1  0.89361500  0.58436200  0.59940100  1
  O  O7  1  0.60959200  0.58463000  0.39198600  1
  F  F0  1  0.12273400  0.58393100  0.87559900  1
  F  F1  1  0.62911400  0.41398400  0.86548000  1
  F  F2  1  0.87047000  0.91283200  0.62532100  1
  F  F3  1  0.89592900  0.25029400  0.59963600  1
  F  F4  1  0.36355000  0.08672900  0.63040900  1
  F  F5  1  0.64353900  0.91312100  0.37788900  1
  F  F6  1  0.10940700  0.40253900  0.38444800  1
  F  F7  1  0.10358600  0.74876800  0.38910500  1
  F  F8  1  0.15165700  0.09311700  0.37779100  1
  F  F9  1  0.60995400  0.24882500  0.39329900  1
  F  F10  1  0.89829600  0.75690200  0.11065800  1
  F  F11  1  0.89623300  0.08075800  0.11870900  1
  F  F12  1  0.34295800  0.59362600  0.12821000  1
  F  F13  1  0.39744900  0.24714700  0.10937000  1
  F  F14  1  0.39197900  0.91760700  0.11781500  1
  F  F15  1  0.84164100  0.40878300  0.12657600  1
loop_
_geom_bond_atom_site_label_1
_geom_bond_atom_site_label_2
_geom_bond_distance
_geom_bond_site_symmetry_2
Li0 O2 1.927623 1_555
Li0 O6 1.994977 1_555
Li1 O4 1.881165 1_555
Li1 O0 2.016060 1_555
Li2 O3 1.946104 1_555
Li2 O5 2.007842 1_555
Li3 O1 2.014449 1_555
Li5 O7 1.971060 1_555
Fe0 O3 1.864502 1_655
Fe0 O1 1.992256 1_555
Fe1 O2 1.863812 1_555
Fe1 O0 1.973017 1_655
Fe1 O1 1.996284 1_565
Fe2 O3 1.858208 1_555
Fe2 O1 1.961626 1_555
Fe2 O0 1.988256 1_545
Fe3 O2 1.884274 1_555
Fe3 O0 2.010809 1_555
Fe4 O5 1.948868 1_555
Fe5 O4 1.866275 1_555
Fe5 O6 2.007056 1_455
Fe5 O7 2.048532 1_555
Fe5 O5 2.066895 1_555
Fe6 O7 1.942730 1_555
Fe6 O6 1.944569 1_555
Fe6 O5 1.997744 1_555
Fe7 O4 1.899027 1_555
Fe7 O6 2.037677 1_555
Fe7 O7 2.105975 1_555
F0 Li2 1.903326 1_555
F0 Li0 1.940551 1_455
F0 Fe3 1.941297 1_555
F1 Li2 1.927578 1_555
F1 Fe0 1.935896 1_555
F1 Li0 1.940706 1_555
F2 Li3 1.885709 1_565
F2 Li1 1.924794 1_655
F2 Fe7 2.004233 1_555
F3 Li3 1.999559 1_555
F3 Fe4 2.008836 1_655
F3 Fe6 2.102963 1_555
F3 F9 2.711272 1_555
F4 Fe4 1.921407 1_555
F4 Li3 1.944321 1_555
F4 Li1 1.964930 1_545
F5 Li6 1.873391 1_565
F5 Li4 1.905618 1_555
F5 Fe7 1.994782 1_555
F6 Li7 2.012281 1_555
F6 Fe6 2.155719 1_455
F6 Fe4 2.155907 1_555
F6 Fe5 2.366739 1_555
F7 Li4 1.898129 1_555
F7 Fe5 2.057581 1_555
F7 Fe7 2.135399 1_455
F8 Li4 1.918135 1_545
F8 Li6 1.919086 1_455
F8 Fe4 1.947468 1_555
F9 Li6 1.933579 1_555
F9 Fe4 2.029061 1_555
F9 Fe6 2.112843 1_555
F10 Li5 1.962348 1_555
F10 Fe1 2.049989 1_554
F10 Fe3 2.129459 1_654
F11 Li6 1.933059 1_555
F11 Fe2 2.185689 1_654
F11 Fe1 2.253472 1_544
F11 Fe0 2.323753 1_554
F12 Li7 1.888291 1_555
F12 Li5 1.951057 1_555
F12 Fe3 1.971494 1_554
F13 Li7 1.932569 1_555
F13 Fe2 2.080682 1_554
F13 Fe0 2.144075 1_554
F14 Li4 1.958364 1_555
F14 Fe1 2.184768 1_554
F14 Fe2 2.252296 1_564
F14 Fe3 2.276799 1_554
F15 Li7 1.922607 1_655
F15 Li5 1.938283 1_555
F15 Fe0 1.976246 1_554
