# generated using pymatgen
data_Li3(FeO3)2
_symmetry_space_group_name_H-M   'P 1'
_cell_length_a   8.86809004
_cell_length_b   8.86809004
_cell_length_c   9.66897011
_cell_angle_alpha   82.86596578
_cell_angle_beta   82.86596578
_cell_angle_gamma   59.18574936
_symmetry_Int_Tables_number   1
_chemical_formula_structural   Li3(FeO3)2
_chemical_formula_sum   'Li18 Fe12 O36'
_cell_volume   646.35892657
_cell_formula_units_Z   6
loop_
 _symmetry_equiv_pos_site_id
 _symmetry_equiv_pos_as_xyz
  1  'x, y, z'
loop_
 _atom_site_type_symbol
 _atom_site_label
 _atom_site_symmetry_multiplicity
 _atom_site_fract_x
 _atom_site_fract_y
 _atom_site_fract_z
 _atom_site_occupancy
  Li  Li0  1  0.50000000  0.00000000  0.50000000  1
  Li  Li1  1  0.36345000  0.16286700  0.98569400  1
  Li  Li2  1  0.19469300  0.99550900  0.48691700  1
  Li  Li3  1  0.16286700  0.36345000  0.48569400  1
  Li  Li4  1  0.00000000  0.50000000  0.00000000  1
  Li  Li5  1  0.99550900  0.19469300  0.98691700  1
  Li  Li6  1  0.83713300  0.63655000  0.51430600  1
  Li  Li7  1  0.84450300  0.32298600  0.50123700  1
  Li  Li8  1  0.80530700  0.00449100  0.51308300  1
  Li  Li9  1  0.67701400  0.15549700  0.99876300  1
  Li  Li10  1  0.67341300  0.46988300  0.01392400  1
  Li  Li11  1  0.63655000  0.83713300  0.01430600  1
  Li  Li12  1  0.53011700  0.32658700  0.48607600  1
  Li  Li13  1  0.46988300  0.67341300  0.51392400  1
  Li  Li14  1  0.32298600  0.84450300  0.00123700  1
  Li  Li15  1  0.32658700  0.53011700  0.98607600  1
  Li  Li16  1  0.15549700  0.67701400  0.49876300  1
  Li  Li17  1  0.00449100  0.80530700  0.01308300  1
  Fe  Fe0  1  0.25039400  0.08433200  0.74704800  1
  Fe  Fe1  1  0.08433200  0.25039400  0.24704800  1
  Fe  Fe2  1  0.07764700  0.92235300  0.25000000  1
  Fe  Fe3  1  0.92235300  0.07764700  0.75000000  1
  Fe  Fe4  1  0.74734300  0.58459600  0.25350000  1
  Fe  Fe5  1  0.74960600  0.91566800  0.25295200  1
  Fe  Fe6  1  0.58459600  0.74734300  0.75350000  1
  Fe  Fe7  1  0.58665000  0.41335000  0.75000000  1
  Fe  Fe8  1  0.41335000  0.58665000  0.25000000  1
  Fe  Fe9  1  0.41540400  0.25265700  0.24650000  1
  Fe  Fe10  1  0.25265700  0.41540400  0.74650000  1
  Fe  Fe11  1  0.91566800  0.74960600  0.75295200  1
  O  O0  1  0.72390800  0.83755800  0.63627800  1
  O  O1  1  0.55724300  0.05466000  0.12928500  1
  O  O2  1  0.44275700  0.94534000  0.87071500  1
  O  O3  1  0.38880600  0.88963500  0.62980100  1
  O  O4  1  0.33769800  0.21669100  0.63136400  1
  O  O5  1  0.27609200  0.16244200  0.36372200  1
  O  O6  1  0.21669100  0.33769800  0.13136400  1
  O  O7  1  0.16244200  0.27609200  0.86372200  1
  O  O8  1  0.16802900  0.05393400  0.13387700  1
  O  O9  1  0.11749800  0.99426600  0.86303700  1
  O  O10  1  0.05466000  0.55724300  0.62928500  1
  O  O11  1  0.05393400  0.16802900  0.63387700  1
  O  O12  1  0.00573400  0.88250200  0.63696300  1
  O  O13  1  0.99426600  0.11749800  0.36303700  1
  O  O14  1  0.94534000  0.44275700  0.37071500  1
  O  O15  1  0.88963500  0.38880600  0.12980100  1
  O  O16  1  0.83755800  0.72390800  0.13627800  1
  O  O17  1  0.88250200  0.00573400  0.13696300  1
  O  O18  1  0.78330900  0.66230200  0.86863600  1
  O  O19  1  0.83197100  0.94606600  0.86612300  1
  O  O20  1  0.78245300  0.27242100  0.87008600  1
  O  O21  1  0.72757900  0.21754700  0.62991400  1
  O  O22  1  0.67400600  0.55285700  0.63479000  1
  O  O23  1  0.66230200  0.78330900  0.36863600  1
  O  O24  1  0.60692200  0.49717000  0.36880800  1
  O  O25  1  0.61119400  0.11036500  0.37019900  1
  O  O26  1  0.55285700  0.67400600  0.13479000  1
  O  O27  1  0.49717000  0.60692200  0.86880800  1
  O  O28  1  0.50283000  0.39307800  0.13119200  1
  O  O29  1  0.44714300  0.32599400  0.86521000  1
  O  O30  1  0.39307800  0.50283000  0.63119200  1
  O  O31  1  0.32599400  0.44714300  0.36521000  1
  O  O32  1  0.27242100  0.78245300  0.37008600  1
  O  O33  1  0.21754700  0.72757900  0.12991400  1
  O  O34  1  0.11036500  0.61119400  0.87019900  1
  O  O35  1  0.94606600  0.83197100  0.36612300  1
loop_
_geom_bond_atom_site_label_1
_geom_bond_atom_site_label_2
_geom_bond_distance
_geom_bond_site_symmetry_2
Li0 O25 1.970192 1_555
Li0 O3 1.970192 1_545
Li0 O4 2.167055 1_555
Li0 O23 2.167055 1_545
Li0 O5 2.236528 1_555
Li0 O0 2.236528 1_545
Li1 O7 1.992704 1_555
Li1 O6 2.025152 1_556
Li1 O1 2.091431 1_556
Li1 O2 2.097692 1_545
Li1 O29 2.113613 1_555
Li1 O8 2.596929 1_556
Li2 O13 2.000296 1_465
Li2 O11 2.015137 1_565
Li2 O32 2.079298 1_555
Li2 O3 2.089525 1_555
Li2 O5 2.138859 1_565
Li2 O12 2.583140 1_555
Li3 O5 1.992704 1_555
Li3 O4 2.025152 1_555
Li3 O10 2.091431 1_555
Li3 O14 2.097692 1_455
Li3 O31 2.113613 1_555
Li3 O11 2.596929 1_555
Li4 O34 1.970192 1_554
Li4 O15 1.970192 1_455
Li4 O6 2.167055 1_555
Li4 O18 2.167055 1_454
Li4 O16 2.236528 1_455
Li4 O7 2.236528 1_554
Li5 O9 2.000296 1_645
Li5 O8 2.015137 1_656
Li5 O20 2.079298 1_555
Li5 O15 2.089525 1_556
Li5 O7 2.138859 1_655
Li5 O17 2.583140 1_556
Li6 O0 1.992704 1_555
Li6 O23 2.025152 1_555
Li6 O14 2.091431 1_555
Li6 O10 2.097692 1_655
Li6 O22 2.113613 1_555
Li6 O35 2.596929 1_555
Li7 O14 1.969849 1_555
Li7 O21 1.970111 1_555
Li7 O11 2.126420 1_655
Li7 O13 2.134167 1_555
Li7 O22 2.262802 1_555
Li7 O24 2.304156 1_555
Li8 O12 2.000296 1_645
Li8 O35 2.015137 1_545
Li8 O21 2.079298 1_555
Li8 O25 2.089525 1_555
Li8 O0 2.138859 1_545
Li8 O13 2.583140 1_555
Li9 O1 1.969849 1_556
Li9 O20 1.970111 1_555
Li9 O19 2.126420 1_545
Li9 O17 2.134167 1_556
Li9 O29 2.262802 1_555
Li9 O28 2.304156 1_556
Li10 O26 2.004466 1_555
Li10 O27 2.015844 1_554
Li10 O15 2.090469 1_555
Li10 O20 2.114649 1_554
Li10 O28 2.115586 1_555
Li10 O18 2.569684 1_554
Li11 O16 1.992704 1_555
Li11 O18 2.025152 1_554
Li11 O2 2.091431 1_554
Li11 O1 2.097692 1_565
Li11 O26 2.113613 1_555
Li11 O19 2.596929 1_554
Li12 O31 2.004466 1_555
Li12 O30 2.015844 1_555
Li12 O25 2.090469 1_555
Li12 O21 2.114649 1_555
Li12 O24 2.115586 1_555
Li12 O4 2.569684 1_555
Li13 O22 2.004466 1_555
Li13 O24 2.015844 1_555
Li13 O3 2.090469 1_555
Li13 O32 2.114649 1_555
Li13 O30 2.115586 1_555
Li13 O23 2.569684 1_555
Li14 O2 1.969849 1_554
Li14 O33 1.970111 1_555
Li14 O8 2.126420 1_565
Li14 O9 2.134167 1_554
Li14 O26 2.262802 1_555
Li14 O27 2.304156 1_554
Li15 O29 2.004466 1_555
Li15 O28 2.015844 1_556
Li15 O34 2.090469 1_555
Li15 O33 2.114649 1_556
Li15 O27 2.115586 1_555
Li15 O6 2.569684 1_556
Li16 O10 1.969849 1_555
Li16 O32 1.970111 1_555
Li16 O35 2.126420 1_455
Li16 O12 2.134167 1_555
Li16 O31 2.262802 1_555
Li16 O30 2.304156 1_555
Li17 O17 2.000296 1_465
Li17 O19 2.015137 1_454
Li17 O33 2.079298 1_555
Li17 O34 2.089525 1_554
Li17 O16 2.138859 1_455
Li17 O9 2.583140 1_554
Fe0 O4 1.902138 1_555
Fe0 O7 1.916225 1_555
Fe0 O9 1.923081 1_545
Fe0 O11 1.931473 1_555
Fe0 O3 1.934482 1_545
Fe0 O2 1.960991 1_545
Fe1 O6 1.902138 1_555
Fe1 O5 1.916225 1_555
Fe1 O13 1.923081 1_455
Fe1 O8 1.931473 1_555
Fe1 O15 1.934482 1_455
Fe1 O14 1.960991 1_455
Fe2 O8 1.916748 1_565
Fe2 O35 1.916748 1_455
Fe2 O13 1.922034 1_465
Fe2 O17 1.922034 1_465
Fe2 O32 1.953388 1_555
Fe2 O33 1.953388 1_555
Fe3 O11 1.916748 1_655
Fe3 O19 1.916748 1_545
Fe3 O9 1.922034 1_645
Fe3 O12 1.922034 1_645
Fe3 O20 1.953388 1_555
Fe3 O21 1.953388 1_555
Fe4 O26 1.945612 1_555
Fe4 O24 1.955603 1_555
Fe4 O14 1.956307 1_555
Fe4 O23 1.957197 1_555
Fe4 O16 1.972453 1_555
Fe4 O15 1.983374 1_555
Fe5 O23 1.902138 1_555
Fe5 O16 1.916225 1_555
Fe5 O17 1.923081 1_565
Fe5 O35 1.931473 1_555
Fe5 O25 1.934482 1_565
Fe5 O1 1.960991 1_565
Fe6 O22 1.945612 1_555
Fe6 O27 1.955603 1_555
Fe6 O2 1.956307 1_555
Fe6 O18 1.957197 1_555
Fe6 O0 1.972453 1_555
Fe6 O3 1.983374 1_555
Fe7 O27 1.940076 1_555
Fe7 O30 1.940076 1_555
Fe7 O22 1.948552 1_555
Fe7 O29 1.948552 1_555
Fe7 O20 1.960160 1_555
Fe7 O21 1.960160 1_555
Fe8 O24 1.940076 1_555
Fe8 O28 1.940076 1_555
Fe8 O26 1.948552 1_555
Fe8 O31 1.948552 1_555
Fe8 O32 1.960160 1_555
Fe8 O33 1.960160 1_555
Fe9 O31 1.945612 1_555
Fe9 O28 1.955603 1_555
Fe9 O1 1.956307 1_555
Fe9 O6 1.957197 1_555
Fe9 O5 1.972453 1_555
Fe9 O25 1.983374 1_555
Fe10 O29 1.945612 1_555
Fe10 O30 1.955603 1_555
Fe10 O10 1.956307 1_555
Fe10 O4 1.957197 1_555
Fe10 O7 1.972453 1_555
Fe10 O34 1.983374 1_555
Fe11 O18 1.902138 1_555
Fe11 O0 1.916225 1_555
Fe11 O12 1.923081 1_655
Fe11 O19 1.931473 1_555
Fe11 O34 1.934482 1_655
Fe11 O10 1.960991 1_655
