# generated using pymatgen
data_Zn2As2O7
_symmetry_space_group_name_H-M   'P 1'
_cell_length_a   11.15925054
_cell_length_b   11.15925054
_cell_length_c   9.75856257
_cell_angle_alpha   81.08094035
_cell_angle_beta   81.08094035
_cell_angle_gamma   45.23907981
_symmetry_Int_Tables_number   1
_chemical_formula_structural   Zn2As2O7
_chemical_formula_sum   'Zn12 As12 O42'
_cell_volume   850.61249588
_cell_formula_units_Z   6
loop_
 _symmetry_equiv_pos_site_id
 _symmetry_equiv_pos_as_xyz
  1  'x, y, z'
loop_
 _atom_site_type_symbol
 _atom_site_label
 _atom_site_symmetry_multiplicity
 _atom_site_fract_x
 _atom_site_fract_y
 _atom_site_fract_z
 _atom_site_occupancy
  Zn  Zn0  1  0.82950300  0.20165600  0.96190300  1
  Zn  Zn1  1  0.84672200  0.47959500  0.83660200  1
  Zn  Zn2  1  0.49700000  0.87298600  0.79185100  1
  Zn  Zn3  1  0.12701400  0.50300000  0.70814900  1
  Zn  Zn4  1  0.52040500  0.15327800  0.66339800  1
  Zn  Zn5  1  0.79834400  0.17049700  0.53809700  1
  Zn  Zn6  1  0.20165600  0.82950300  0.46190300  1
  Zn  Zn7  1  0.47959500  0.84672200  0.33660200  1
  Zn  Zn8  1  0.87298600  0.49700000  0.29185100  1
  Zn  Zn9  1  0.50300000  0.12701400  0.20814900  1
  Zn  Zn10  1  0.15327800  0.52040500  0.16339800  1
  Zn  Zn11  1  0.17049700  0.79834400  0.03809700  1
  As  As0  1  0.89566100  0.90425200  0.81477300  1
  As  As1  1  0.25989900  0.22268500  0.95975300  1
  As  As2  1  0.41393200  0.45039200  0.86595300  1
  As  As3  1  0.54960800  0.58606800  0.63404700  1
  As  As4  1  0.77731500  0.74010100  0.54024700  1
  As  As5  1  0.09574800  0.10433900  0.68522700  1
  As  As6  1  0.90425200  0.89566100  0.31477300  1
  As  As7  1  0.22268500  0.25989900  0.45975300  1
  As  As8  1  0.45039200  0.41393200  0.36595300  1
  As  As9  1  0.58606800  0.54960800  0.13404700  1
  As  As10  1  0.74010100  0.77731500  0.04024700  1
  As  As11  1  0.10433900  0.09574800  0.18522700  1
  O  O0  1  0.97513000  0.95773100  0.89990100  1
  O  O1  1  0.76685400  0.90848800  0.95218200  1
  O  O2  1  0.69596000  0.71509400  0.92324400  1
  O  O3  1  0.24768900  0.58125500  0.98415200  1
  O  O4  1  0.60108000  0.29567500  0.93757100  1
  O  O5  1  0.93176800  0.25323900  0.79624900  1
  O  O6  1  0.27597600  0.95727700  0.76619100  1
  O  O7  1  0.08138500  0.39252500  0.87583800  1
  O  O8  1  0.62491200  0.63437000  0.73203000  1
  O  O9  1  0.42809300  0.08461100  0.84727700  1
  O  O10  1  0.39882500  0.60117500  0.75000000  1
  O  O11  1  0.91538900  0.57190700  0.65272300  1
  O  O12  1  0.36563000  0.37508800  0.76797000  1
  O  O13  1  0.60747500  0.91861500  0.62416200  1
  O  O14  1  0.04272300  0.72402400  0.73380900  1
  O  O15  1  0.74676100  0.06823200  0.70375100  1
  O  O16  1  0.70432500  0.39892000  0.56242900  1
  O  O17  1  0.95773100  0.97513000  0.39990100  1
  O  O18  1  0.90848800  0.76685400  0.45218200  1
  O  O19  1  0.41874500  0.75231100  0.51584800  1
  O  O20  1  0.71509400  0.69596000  0.42324400  1
  O  O21  1  0.28490600  0.30404000  0.57675600  1
  O  O22  1  0.58125500  0.24768900  0.48415200  1
  O  O23  1  0.09151200  0.23314600  0.54781800  1
  O  O24  1  0.04226900  0.02487000  0.60009900  1
  O  O25  1  0.29567500  0.60108000  0.43757100  1
  O  O26  1  0.25323900  0.93176800  0.29624900  1
  O  O27  1  0.95727700  0.27597600  0.26619100  1
  O  O28  1  0.39252500  0.08138500  0.37583800  1
  O  O29  1  0.63437000  0.62491200  0.23203000  1
  O  O30  1  0.08461100  0.42809300  0.34727700  1
  O  O31  1  0.60117500  0.39882500  0.25000000  1
  O  O32  1  0.57190700  0.91538900  0.15272300  1
  O  O33  1  0.37508800  0.36563000  0.26797000  1
  O  O34  1  0.91861500  0.60747500  0.12416200  1
  O  O35  1  0.72402400  0.04272300  0.23380900  1
  O  O36  1  0.06823200  0.74676100  0.20375100  1
  O  O37  1  0.39892000  0.70432500  0.06242900  1
  O  O38  1  0.75231100  0.41874500  0.01584800  1
  O  O39  1  0.30404000  0.28490600  0.07675600  1
  O  O40  1  0.23314600  0.09151200  0.04781800  1
  O  O41  1  0.02487000  0.04226900  0.10009900  1
loop_
_geom_bond_atom_site_label_1
_geom_bond_atom_site_label_2
_geom_bond_distance
_geom_bond_site_symmetry_2
As0 O14 1.674772 1_655
As0 O15 1.716007 1_565
As0 O0 1.720519 1_555
As0 O1 1.786810 1_555
As1 O9 1.707187 1_555
As1 O39 1.711809 1_556
As1 O7 1.714214 1_555
As1 O40 1.765269 1_556
As2 O4 1.682665 1_555
As2 O3 1.717007 1_555
As2 O12 1.719832 1_555
As2 O10 1.791456 1_555
As3 O16 1.682665 1_555
As3 O19 1.717007 1_555
As3 O8 1.719832 1_555
As3 O10 1.791456 1_555
As4 O11 1.707187 1_555
As4 O20 1.711809 1_555
As4 O13 1.714214 1_555
As4 O18 1.765269 1_555
As5 O6 1.674772 1_545
As5 O5 1.716007 1_455
As5 O24 1.720519 1_555
As5 O23 1.786810 1_555
As6 O35 1.674772 1_565
As6 O36 1.716007 1_655
As6 O17 1.720519 1_555
As6 O18 1.786810 1_555
As7 O30 1.707187 1_555
As7 O21 1.711809 1_555
As7 O28 1.714214 1_555
As7 O23 1.765269 1_555
As8 O25 1.682665 1_555
As8 O22 1.717007 1_555
As8 O33 1.719832 1_555
As8 O31 1.791456 1_555
As9 O37 1.682665 1_555
As9 O38 1.717007 1_555
As9 O29 1.719832 1_555
As9 O31 1.791456 1_555
As10 O32 1.707187 1_555
As10 O2 1.711809 1_554
As10 O34 1.714214 1_555
As10 O1 1.765269 1_554
As11 O27 1.674772 1_455
As11 O26 1.716007 1_545
As11 O41 1.720519 1_555
As11 O40 1.786810 1_555
O0 Zn0 2.095839 1_565
O0 Zn11 2.107665 1_656
O2 Zn2 2.085906 1_555
O2 Zn1 2.114955 1_555
O3 Zn11 2.050338 1_556
O3 Zn10 2.167601 1_556
O4 Zn0 1.999698 1_555
O5 Zn1 2.062216 1_555
O5 Zn0 2.076405 1_555
O6 Zn2 1.970307 1_555
O7 Zn3 2.111172 1_555
O7 Zn1 2.135499 1_455
O8 Zn2 2.083150 1_555
O8 Zn1 2.089802 1_555
O9 Zn2 2.042205 1_545
O9 Zn4 2.231666 1_555
O11 Zn3 2.042205 1_655
O11 Zn1 2.231666 1_555
O12 Zn3 2.083150 1_555
O12 Zn4 2.089802 1_555
O13 Zn2 2.111172 1_555
O13 Zn4 2.135499 1_565
O14 Zn3 1.970307 1_555
O15 Zn4 2.062216 1_555
O15 Zn5 2.076405 1_555
O16 Zn5 1.999698 1_555
O17 Zn6 2.095839 1_655
O17 Zn5 2.107665 1_565
O19 Zn6 2.050338 1_555
O19 Zn7 2.167601 1_555
O20 Zn8 2.085906 1_555
O20 Zn7 2.114955 1_555
O21 Zn3 2.085906 1_555
O21 Zn4 2.114955 1_555
O22 Zn5 2.050338 1_555
O22 Zn4 2.167601 1_555
O24 Zn5 2.095839 1_455
O24 Zn6 2.107665 1_545
O25 Zn6 1.999698 1_555
O26 Zn7 2.062216 1_555
O26 Zn6 2.076405 1_555
O27 Zn8 1.970307 1_555
O28 Zn9 2.111172 1_555
O28 Zn7 2.135499 1_545
O29 Zn8 2.083150 1_555
O29 Zn7 2.089802 1_555
O30 Zn8 2.042205 1_455
O30 Zn10 2.231666 1_555
O32 Zn9 2.042205 1_565
O32 Zn7 2.231666 1_555
O33 Zn9 2.083150 1_555
O33 Zn10 2.089802 1_555
O34 Zn8 2.111172 1_555
O34 Zn10 2.135499 1_655
O35 Zn9 1.970307 1_555
O36 Zn10 2.062216 1_555
O36 Zn11 2.076405 1_555
O37 Zn11 1.999698 1_555
O38 Zn0 2.050338 1_554
O38 Zn1 2.167601 1_554
O39 Zn9 2.085906 1_555
O39 Zn10 2.114955 1_555
O41 Zn11 2.095839 1_545
O41 Zn0 2.107665 1_454
