# generated using pymatgen
data_Ag2Hg5
_symmetry_space_group_name_H-M   'P 1'
_cell_length_a   20.52611600
_cell_length_b   20.52611600
_cell_length_c   6.18083800
_cell_angle_alpha   90.00000000
_cell_angle_beta   90.00000000
_cell_angle_gamma   90.00000000
_symmetry_Int_Tables_number   1
_chemical_formula_structural   Ag2Hg5
_chemical_formula_sum   'Ag32 Hg80'
_cell_volume   2604.11955449
_cell_formula_units_Z   16
loop_
 _symmetry_equiv_pos_site_id
 _symmetry_equiv_pos_as_xyz
  1  'x, y, z'
loop_
 _atom_site_type_symbol
 _atom_site_label
 _atom_site_symmetry_multiplicity
 _atom_site_fract_x
 _atom_site_fract_y
 _atom_site_fract_z
 _atom_site_occupancy
  Ag  Ag0_0  1  0.34043400  0.09043400  0.25000000  1
  Ag  Ag0_1  1  0.34043400  0.09043400  0.75000000  1
  Ag  Ag0_2  1  0.34043400  0.59043400  0.25000000  1
  Ag  Ag0_3  1  0.34043400  0.59043400  0.75000000  1
  Ag  Ag0_4  1  0.84043400  0.09043400  0.25000000  1
  Ag  Ag0_5  1  0.84043400  0.09043400  0.75000000  1
  Ag  Ag0_6  1  0.84043400  0.59043400  0.25000000  1
  Ag  Ag0_7  1  0.84043400  0.59043400  0.75000000  1
  Ag  Ag1_0  1  0.09043400  0.15956600  0.25000000  1
  Ag  Ag1_1  1  0.09043400  0.15956600  0.75000000  1
  Ag  Ag1_2  1  0.09043400  0.65956600  0.25000000  1
  Ag  Ag1_3  1  0.09043400  0.65956600  0.75000000  1
  Ag  Ag1_4  1  0.59043400  0.15956600  0.25000000  1
  Ag  Ag1_5  1  0.59043400  0.15956600  0.75000000  1
  Ag  Ag1_6  1  0.59043400  0.65956600  0.25000000  1
  Ag  Ag1_7  1  0.59043400  0.65956600  0.75000000  1
  Ag  Ag2_0  1  0.40956600  0.34043400  0.25000000  1
  Ag  Ag2_1  1  0.40956600  0.34043400  0.75000000  1
  Ag  Ag2_2  1  0.40956600  0.84043400  0.25000000  1
  Ag  Ag2_3  1  0.40956600  0.84043400  0.75000000  1
  Ag  Ag2_4  1  0.90956600  0.34043400  0.25000000  1
  Ag  Ag2_5  1  0.90956600  0.34043400  0.75000000  1
  Ag  Ag2_6  1  0.90956600  0.84043400  0.25000000  1
  Ag  Ag2_7  1  0.90956600  0.84043400  0.75000000  1
  Ag  Ag3_0  1  0.15956600  0.40956600  0.25000000  1
  Ag  Ag3_1  1  0.15956600  0.40956600  0.75000000  1
  Ag  Ag3_2  1  0.15956600  0.90956600  0.25000000  1
  Ag  Ag3_3  1  0.15956600  0.90956600  0.75000000  1
  Ag  Ag3_4  1  0.65956600  0.40956600  0.25000000  1
  Ag  Ag3_5  1  0.65956600  0.40956600  0.75000000  1
  Ag  Ag3_6  1  0.65956600  0.90956600  0.25000000  1
  Ag  Ag3_7  1  0.65956600  0.90956600  0.75000000  1
  Hg  Hg0_0  1  0.25000000  0.00000000  0.00000000  1
  Hg  Hg0_1  1  0.25000000  0.00000000  0.50000000  1
  Hg  Hg0_2  1  0.25000000  0.50000000  0.00000000  1
  Hg  Hg0_3  1  0.25000000  0.50000000  0.50000000  1
  Hg  Hg0_4  1  0.75000000  0.00000000  0.00000000  1
  Hg  Hg0_5  1  0.75000000  0.00000000  0.50000000  1
  Hg  Hg0_6  1  0.75000000  0.50000000  0.00000000  1
  Hg  Hg0_7  1  0.75000000  0.50000000  0.50000000  1
  Hg  Hg1_0  1  0.10065050  0.03145700  0.00000000  1
  Hg  Hg1_1  1  0.10065050  0.03145700  0.50000000  1
  Hg  Hg1_2  1  0.10065050  0.53145700  0.00000000  1
  Hg  Hg1_3  1  0.10065050  0.53145700  0.50000000  1
  Hg  Hg1_4  1  0.60065050  0.03145700  0.00000000  1
  Hg  Hg1_5  1  0.60065050  0.03145700  0.50000000  1
  Hg  Hg1_6  1  0.60065050  0.53145700  0.00000000  1
  Hg  Hg1_7  1  0.60065050  0.53145700  0.50000000  1
  Hg  Hg2_0  1  0.46854300  0.10065050  0.00000000  1
  Hg  Hg2_1  1  0.46854300  0.10065050  0.50000000  1
  Hg  Hg2_2  1  0.46854300  0.60065050  0.00000000  1
  Hg  Hg2_3  1  0.46854300  0.60065050  0.50000000  1
  Hg  Hg2_4  1  0.96854300  0.10065050  0.00000000  1
  Hg  Hg2_5  1  0.96854300  0.10065050  0.50000000  1
  Hg  Hg2_6  1  0.96854300  0.60065050  0.00000000  1
  Hg  Hg2_7  1  0.96854300  0.60065050  0.50000000  1
  Hg  Hg3_0  1  0.21854300  0.14934950  0.00000000  1
  Hg  Hg3_1  1  0.21854300  0.14934950  0.50000000  1
  Hg  Hg3_2  1  0.21854300  0.64934950  0.00000000  1
  Hg  Hg3_3  1  0.21854300  0.64934950  0.50000000  1
  Hg  Hg3_4  1  0.71854300  0.14934950  0.00000000  1
  Hg  Hg3_5  1  0.71854300  0.14934950  0.50000000  1
  Hg  Hg3_6  1  0.71854300  0.64934950  0.00000000  1
  Hg  Hg3_7  1  0.71854300  0.64934950  0.50000000  1
  Hg  Hg4_0  1  0.35065050  0.21854300  0.00000000  1
  Hg  Hg4_1  1  0.35065050  0.21854300  0.50000000  1
  Hg  Hg4_2  1  0.35065050  0.71854300  0.00000000  1
  Hg  Hg4_3  1  0.35065050  0.71854300  0.50000000  1
  Hg  Hg4_4  1  0.85065050  0.21854300  0.00000000  1
  Hg  Hg4_5  1  0.85065050  0.21854300  0.50000000  1
  Hg  Hg4_6  1  0.85065050  0.71854300  0.00000000  1
  Hg  Hg4_7  1  0.85065050  0.71854300  0.50000000  1
  Hg  Hg5_0  1  0.00000000  0.25000000  0.00000000  1
  Hg  Hg5_1  1  0.00000000  0.25000000  0.50000000  1
  Hg  Hg5_2  1  0.00000000  0.75000000  0.00000000  1
  Hg  Hg5_3  1  0.00000000  0.75000000  0.50000000  1
  Hg  Hg5_4  1  0.50000000  0.25000000  0.00000000  1
  Hg  Hg5_5  1  0.50000000  0.25000000  0.50000000  1
  Hg  Hg5_6  1  0.50000000  0.75000000  0.00000000  1
  Hg  Hg5_7  1  0.50000000  0.75000000  0.50000000  1
  Hg  Hg6_0  1  0.14934950  0.28145700  0.00000000  1
  Hg  Hg6_1  1  0.14934950  0.28145700  0.50000000  1
  Hg  Hg6_2  1  0.14934950  0.78145700  0.00000000  1
  Hg  Hg6_3  1  0.14934950  0.78145700  0.50000000  1
  Hg  Hg6_4  1  0.64934950  0.28145700  0.00000000  1
  Hg  Hg6_5  1  0.64934950  0.28145700  0.50000000  1
  Hg  Hg6_6  1  0.64934950  0.78145700  0.00000000  1
  Hg  Hg6_7  1  0.64934950  0.78145700  0.50000000  1
  Hg  Hg7_0  1  0.28145700  0.35065050  0.00000000  1
  Hg  Hg7_1  1  0.28145700  0.35065050  0.50000000  1
  Hg  Hg7_2  1  0.28145700  0.85065050  0.00000000  1
  Hg  Hg7_3  1  0.28145700  0.85065050  0.50000000  1
  Hg  Hg7_4  1  0.78145700  0.35065050  0.00000000  1
  Hg  Hg7_5  1  0.78145700  0.35065050  0.50000000  1
  Hg  Hg7_6  1  0.78145700  0.85065050  0.00000000  1
  Hg  Hg7_7  1  0.78145700  0.85065050  0.50000000  1
  Hg  Hg8_0  1  0.03145700  0.39934950  0.00000000  1
  Hg  Hg8_1  1  0.03145700  0.39934950  0.50000000  1
  Hg  Hg8_2  1  0.03145700  0.89934950  0.00000000  1
  Hg  Hg8_3  1  0.03145700  0.89934950  0.50000000  1
  Hg  Hg8_4  1  0.53145700  0.39934950  0.00000000  1
  Hg  Hg8_5  1  0.53145700  0.39934950  0.50000000  1
  Hg  Hg8_6  1  0.53145700  0.89934950  0.00000000  1
  Hg  Hg8_7  1  0.53145700  0.89934950  0.50000000  1
  Hg  Hg9_0  1  0.39934950  0.46854300  0.00000000  1
  Hg  Hg9_1  1  0.39934950  0.46854300  0.50000000  1
  Hg  Hg9_2  1  0.39934950  0.96854300  0.00000000  1
  Hg  Hg9_3  1  0.39934950  0.96854300  0.50000000  1
  Hg  Hg9_4  1  0.89934950  0.46854300  0.00000000  1
  Hg  Hg9_5  1  0.89934950  0.46854300  0.50000000  1
  Hg  Hg9_6  1  0.89934950  0.96854300  0.00000000  1
  Hg  Hg9_7  1  0.89934950  0.96854300  0.50000000  1
loop_
_geom_bond_atom_site_label_1
_geom_bond_atom_site_label_2
_geom_bond_distance
_geom_bond_site_symmetry_2
Ag0_0 Hg0_0 3.046156 1_555
Ag0_0 Hg0_1 3.046156 1_555
Ag0_0 Hg4_1 3.057179 1_555
Ag0_0 Hg4_0 3.057179 1_555
Ag0_0 Hg2_0 3.057179 1_555
Ag0_0 Hg2_1 3.057179 1_555
Ag0_0 Ag0_1 3.090419 1_555
Ag0_0 Ag0_1 3.090419 1_554
Ag0_0 Hg3_0 3.179598 1_555
Ag0_0 Hg3_1 3.179598 1_555
Ag0_0 Hg9_2 3.179598 1_545
Ag0_0 Hg9_3 3.179598 1_545
Ag0_1 Hg0_1 3.046156 1_555
Ag0_1 Hg0_0 3.046156 1_556
Ag0_1 Hg4_1 3.057179 1_555
Ag0_1 Hg4_0 3.057179 1_556
Ag0_1 Hg2_1 3.057179 1_555
Ag0_1 Hg2_0 3.057179 1_556
Ag0_1 Hg3_1 3.179598 1_555
Ag0_1 Hg3_0 3.179598 1_556
Ag0_1 Hg9_3 3.179598 1_545
Ag0_1 Hg9_2 3.179598 1_546
Ag0_2 Hg0_3 3.046156 1_555
Ag0_2 Hg0_2 3.046156 1_555
Ag0_2 Hg4_2 3.057179 1_555
Ag0_2 Hg4_3 3.057179 1_555
Ag0_2 Hg2_3 3.057179 1_555
Ag0_2 Hg2_2 3.057179 1_555
Ag0_2 Ag0_3 3.090419 1_555
Ag0_2 Ag0_3 3.090419 1_554
Ag0_2 Hg3_2 3.179598 1_555
Ag0_2 Hg3_3 3.179598 1_555
Ag0_2 Hg9_0 3.179598 1_555
Ag0_2 Hg9_1 3.179598 1_555
Ag0_3 Hg0_3 3.046156 1_555
Ag0_3 Hg0_2 3.046156 1_556
Ag0_3 Hg4_3 3.057179 1_555
Ag0_3 Hg4_2 3.057179 1_556
Ag0_3 Hg2_3 3.057179 1_555
Ag0_3 Hg2_2 3.057179 1_556
Ag0_3 Hg3_3 3.179598 1_555
Ag0_3 Hg3_2 3.179598 1_556
Ag0_3 Hg9_1 3.179598 1_555
Ag0_3 Hg9_0 3.179598 1_556
Ag0_4 Hg0_4 3.046156 1_555
Ag0_4 Hg0_5 3.046156 1_555
Ag0_4 Hg4_5 3.057179 1_555
Ag0_4 Hg4_4 3.057179 1_555
Ag0_4 Hg2_4 3.057179 1_555
Ag0_4 Hg2_5 3.057179 1_555
Ag0_4 Ag0_5 3.090419 1_555
Ag0_4 Ag0_5 3.090419 1_554
Ag0_4 Hg3_4 3.179598 1_555
Ag0_4 Hg3_5 3.179598 1_555
Ag0_4 Hg9_7 3.179598 1_545
Ag0_4 Hg9_6 3.179598 1_545
Ag0_5 Hg0_5 3.046156 1_555
Ag0_5 Hg0_4 3.046156 1_556
Ag0_5 Hg4_5 3.057179 1_555
Ag0_5 Hg4_4 3.057179 1_556
Ag0_5 Hg2_5 3.057179 1_555
Ag0_5 Hg2_4 3.057179 1_556
Ag0_5 Hg3_5 3.179598 1_555
Ag0_5 Hg3_4 3.179598 1_556
Ag0_5 Hg9_7 3.179598 1_545
Ag0_5 Hg9_6 3.179598 1_546
Ag0_6 Hg0_7 3.046156 1_555
Ag0_6 Hg0_6 3.046156 1_555
Ag0_6 Hg4_6 3.057179 1_555
Ag0_6 Hg4_7 3.057179 1_555
Ag0_6 Hg2_7 3.057179 1_555
Ag0_6 Hg2_6 3.057179 1_555
Ag0_6 Ag0_7 3.090419 1_555
Ag0_6 Ag0_7 3.090419 1_554
Ag0_6 Hg3_7 3.179598 1_555
Ag0_6 Hg3_6 3.179598 1_555
Ag0_6 Hg9_5 3.179598 1_555
Ag0_6 Hg9_4 3.179598 1_555
Ag0_7 Hg0_7 3.046156 1_555
Ag0_7 Hg0_6 3.046156 1_556
Ag0_7 Hg4_7 3.057179 1_555
Ag0_7 Hg4_6 3.057179 1_556
Ag0_7 Hg2_7 3.057179 1_555
Ag0_7 Hg2_6 3.057179 1_556
Ag0_7 Hg3_7 3.179598 1_555
Ag0_7 Hg3_6 3.179598 1_556
Ag0_7 Hg9_5 3.179598 1_555
Ag0_7 Hg9_4 3.179598 1_556
Ag1_0 Hg5_0 3.046156 1_555
Ag1_0 Hg5_1 3.046156 1_555
Ag1_0 Hg1_0 3.057179 1_555
Ag1_0 Hg1_1 3.057179 1_555
Ag1_0 Hg3_1 3.057179 1_555
Ag1_0 Hg3_0 3.057179 1_555
Ag1_0 Ag1_1 3.090419 1_555
Ag1_0 Ag1_1 3.090419 1_554
Ag1_0 Hg2_4 3.179598 1_455
Ag1_0 Hg2_5 3.179598 1_455
Ag1_0 Hg6_1 3.179598 1_555
Ag1_0 Hg6_0 3.179598 1_555
Ag1_1 Hg5_1 3.046156 1_555
Ag1_1 Hg5_0 3.046156 1_556
Ag1_1 Hg1_1 3.057179 1_555
Ag1_1 Hg1_0 3.057179 1_556
Ag1_1 Hg3_1 3.057179 1_555
Ag1_1 Hg3_0 3.057179 1_556
Ag1_1 Hg2_5 3.179598 1_455
Ag1_1 Hg2_4 3.179598 1_456
Ag1_1 Hg6_1 3.179598 1_555
Ag1_1 Hg6_0 3.179598 1_556
Ag1_2 Hg5_2 3.046156 1_555
Ag1_2 Hg5_3 3.046156 1_555
Ag1_2 Hg1_2 3.057179 1_555
Ag1_2 Hg1_3 3.057179 1_555
Ag1_2 Hg3_2 3.057179 1_555
Ag1_2 Hg3_3 3.057179 1_555
Ag1_2 Ag1_3 3.090419 1_555
Ag1_2 Ag1_3 3.090419 1_554
Ag1_2 Hg2_6 3.179598 1_455
Ag1_2 Hg2_7 3.179598 1_455
Ag1_2 Hg6_2 3.179598 1_555
Ag1_2 Hg6_3 3.179598 1_555
Ag1_3 Hg5_3 3.046156 1_555
Ag1_3 Hg5_2 3.046156 1_556
Ag1_3 Hg1_3 3.057179 1_555
Ag1_3 Hg1_2 3.057179 1_556
Ag1_3 Hg3_3 3.057179 1_555
Ag1_3 Hg3_2 3.057179 1_556
Ag1_3 Hg2_7 3.179598 1_455
Ag1_3 Hg2_6 3.179598 1_456
Ag1_3 Hg6_3 3.179598 1_555
Ag1_3 Hg6_2 3.179598 1_556
Ag1_4 Hg5_4 3.046156 1_555
Ag1_4 Hg5_5 3.046156 1_555
Ag1_4 Hg1_5 3.057179 1_555
Ag1_4 Hg1_4 3.057179 1_555
Ag1_4 Hg3_4 3.057179 1_555
Ag1_4 Hg3_5 3.057179 1_555
Ag1_4 Ag1_5 3.090419 1_555
Ag1_4 Ag1_5 3.090419 1_554
Ag1_4 Hg2_0 3.179598 1_555
Ag1_4 Hg2_1 3.179598 1_555
Ag1_4 Hg6_5 3.179598 1_555
Ag1_4 Hg6_4 3.179598 1_555
Ag1_5 Hg5_5 3.046156 1_555
Ag1_5 Hg5_4 3.046156 1_556
Ag1_5 Hg1_5 3.057179 1_555
Ag1_5 Hg1_4 3.057179 1_556
Ag1_5 Hg3_5 3.057179 1_555
Ag1_5 Hg3_4 3.057179 1_556
Ag1_5 Hg2_1 3.179598 1_555
Ag1_5 Hg2_0 3.179598 1_556
Ag1_5 Hg6_5 3.179598 1_555
Ag1_5 Hg6_4 3.179598 1_556
Ag1_6 Hg5_7 3.046156 1_555
Ag1_6 Hg5_6 3.046156 1_555
Ag1_6 Hg1_6 3.057179 1_555
Ag1_6 Hg1_7 3.057179 1_555
Ag1_6 Hg3_7 3.057179 1_555
Ag1_6 Hg3_6 3.057179 1_555
Ag1_6 Ag1_7 3.090419 1_555
Ag1_6 Ag1_7 3.090419 1_554
Ag1_6 Hg2_2 3.179598 1_555
Ag1_6 Hg2_3 3.179598 1_555
Ag1_6 Hg6_6 3.179598 1_555
Ag1_6 Hg6_7 3.179598 1_555
Ag1_7 Hg5_7 3.046156 1_555
Ag1_7 Hg5_6 3.046156 1_556
Ag1_7 Hg1_7 3.057179 1_555
Ag1_7 Hg1_6 3.057179 1_556
Ag1_7 Hg3_7 3.057179 1_555
Ag1_7 Hg3_6 3.057179 1_556
Ag1_7 Hg2_3 3.179598 1_555
Ag1_7 Hg2_2 3.179598 1_556
Ag1_7 Hg6_7 3.179598 1_555
Ag1_7 Hg6_6 3.179598 1_556
Ag2_0 Hg5_4 3.046156 1_555
Ag2_0 Hg5_5 3.046156 1_555
Ag2_0 Hg7_1 3.057179 1_555
Ag2_0 Hg7_0 3.057179 1_555
Ag2_0 Hg9_0 3.057179 1_555
Ag2_0 Hg9_1 3.057179 1_555
Ag2_0 Ag2_1 3.090419 1_555
Ag2_0 Ag2_1 3.090419 1_554
Ag2_0 Hg4_0 3.179598 1_555
Ag2_0 Hg4_1 3.179598 1_555
Ag2_0 Hg8_4 3.179598 1_555
Ag2_0 Hg8_5 3.179598 1_555
Ag2_1 Hg5_5 3.046156 1_555
Ag2_1 Hg5_4 3.046156 1_556
Ag2_1 Hg7_1 3.057179 1_555
Ag2_1 Hg7_0 3.057179 1_556
Ag2_1 Hg9_1 3.057179 1_555
Ag2_1 Hg9_0 3.057179 1_556
Ag2_1 Hg4_1 3.179598 1_555
Ag2_1 Hg4_0 3.179598 1_556
Ag2_1 Hg8_5 3.179598 1_555
Ag2_1 Hg8_4 3.179598 1_556
Ag2_2 Hg5_6 3.046156 1_555
Ag2_2 Hg5_7 3.046156 1_555
Ag2_2 Hg7_2 3.057179 1_555
Ag2_2 Hg7_3 3.057179 1_555
Ag2_2 Hg9_2 3.057179 1_555
Ag2_2 Hg9_3 3.057179 1_555
Ag2_2 Ag2_3 3.090419 1_555
Ag2_2 Ag2_3 3.090419 1_554
Ag2_2 Hg4_2 3.179598 1_555
Ag2_2 Hg4_3 3.179598 1_555
Ag2_2 Hg8_6 3.179598 1_555
Ag2_2 Hg8_7 3.179598 1_555
Ag2_3 Hg5_7 3.046156 1_555
Ag2_3 Hg5_6 3.046156 1_556
Ag2_3 Hg7_3 3.057179 1_555
Ag2_3 Hg7_2 3.057179 1_556
Ag2_3 Hg9_3 3.057179 1_555
Ag2_3 Hg9_2 3.057179 1_556
Ag2_3 Hg4_3 3.179598 1_555
Ag2_3 Hg4_2 3.179598 1_556
Ag2_3 Hg8_7 3.179598 1_555
Ag2_3 Hg8_6 3.179598 1_556
Ag2_4 Hg5_0 3.046156 1_655
Ag2_4 Hg5_1 3.046156 1_655
Ag2_4 Hg7_5 3.057179 1_555
Ag2_4 Hg7_4 3.057179 1_555
Ag2_4 Hg9_4 3.057179 1_555
Ag2_4 Hg9_5 3.057179 1_555
Ag2_4 Ag2_5 3.090419 1_555
Ag2_4 Ag2_5 3.090419 1_554
Ag2_4 Hg4_4 3.179598 1_555
Ag2_4 Hg4_5 3.179598 1_555
Ag2_4 Hg8_1 3.179598 1_655
Ag2_4 Hg8_0 3.179598 1_655
Ag2_5 Hg5_1 3.046156 1_655
Ag2_5 Hg5_0 3.046156 1_656
Ag2_5 Hg7_5 3.057179 1_555
Ag2_5 Hg7_4 3.057179 1_556
Ag2_5 Hg9_5 3.057179 1_555
Ag2_5 Hg9_4 3.057179 1_556
Ag2_5 Hg4_5 3.179598 1_555
Ag2_5 Hg4_4 3.179598 1_556
Ag2_5 Hg8_1 3.179598 1_655
Ag2_5 Hg8_0 3.179598 1_656
Ag2_6 Hg5_2 3.046156 1_655
Ag2_6 Hg5_3 3.046156 1_655
Ag2_6 Hg7_7 3.057179 1_555
Ag2_6 Hg7_6 3.057179 1_555
Ag2_6 Hg9_6 3.057179 1_555
Ag2_6 Hg9_7 3.057179 1_555
Ag2_6 Ag2_7 3.090419 1_555
Ag2_6 Ag2_7 3.090419 1_554
Ag2_6 Hg4_6 3.179598 1_555
Ag2_6 Hg4_7 3.179598 1_555
Ag2_6 Hg8_2 3.179598 1_655
Ag2_6 Hg8_3 3.179598 1_655
Ag2_7 Hg5_3 3.046156 1_655
Ag2_7 Hg5_2 3.046156 1_656
Ag2_7 Hg7_7 3.057179 1_555
Ag2_7 Hg7_6 3.057179 1_556
Ag2_7 Hg9_7 3.057179 1_555
Ag2_7 Hg9_6 3.057179 1_556
Ag2_7 Hg4_7 3.179598 1_555
Ag2_7 Hg4_6 3.179598 1_556
Ag2_7 Hg8_3 3.179598 1_655
Ag2_7 Hg8_2 3.179598 1_656
Ag3_0 Hg0_2 3.046156 1_555
Ag3_0 Hg0_3 3.046156 1_555
Ag3_0 Hg8_0 3.057179 1_555
Ag3_0 Hg8_1 3.057179 1_555
Ag3_0 Hg6_1 3.057179 1_555
Ag3_0 Hg6_0 3.057179 1_555
Ag3_0 Ag3_1 3.090419 1_555
Ag3_0 Ag3_1 3.090419 1_554
Ag3_0 Hg1_2 3.179598 1_555
Ag3_0 Hg1_3 3.179598 1_555
Ag3_0 Hg7_1 3.179598 1_555
Ag3_0 Hg7_0 3.179598 1_555
Ag3_1 Hg0_3 3.046156 1_555
Ag3_1 Hg0_2 3.046156 1_556
Ag3_1 Hg8_1 3.057179 1_555
Ag3_1 Hg8_0 3.057179 1_556
Ag3_1 Hg6_1 3.057179 1_555
Ag3_1 Hg6_0 3.057179 1_556
Ag3_1 Hg1_3 3.179598 1_555
Ag3_1 Hg1_2 3.179598 1_556
Ag3_1 Hg7_1 3.179598 1_555
Ag3_1 Hg7_0 3.179598 1_556
Ag3_2 Hg0_0 3.046156 1_565
Ag3_2 Hg0_1 3.046156 1_565
Ag3_2 Hg8_2 3.057179 1_555
Ag3_2 Hg8_3 3.057179 1_555
Ag3_2 Hg6_2 3.057179 1_555
Ag3_2 Hg6_3 3.057179 1_555
Ag3_2 Ag3_3 3.090419 1_555
Ag3_2 Ag3_3 3.090419 1_554
Ag3_2 Hg1_1 3.179598 1_565
Ag3_2 Hg1_0 3.179598 1_565
Ag3_2 Hg7_2 3.179598 1_555
Ag3_2 Hg7_3 3.179598 1_555
Ag3_3 Hg0_1 3.046156 1_565
Ag3_3 Hg0_0 3.046156 1_566
Ag3_3 Hg8_3 3.057179 1_555
Ag3_3 Hg8_2 3.057179 1_556
Ag3_3 Hg6_3 3.057179 1_555
Ag3_3 Hg6_2 3.057179 1_556
Ag3_3 Hg1_1 3.179598 1_565
Ag3_3 Hg1_0 3.179598 1_566
Ag3_3 Hg7_3 3.179598 1_555
Ag3_3 Hg7_2 3.179598 1_556
Ag3_4 Hg0_6 3.046156 1_555
Ag3_4 Hg0_7 3.046156 1_555
Ag3_4 Hg8_4 3.057179 1_555
Ag3_4 Hg8_5 3.057179 1_555
Ag3_4 Hg6_4 3.057179 1_555
Ag3_4 Hg6_5 3.057179 1_555
Ag3_4 Ag3_5 3.090419 1_555
Ag3_4 Ag3_5 3.090419 1_554
Ag3_4 Hg1_6 3.179598 1_555
Ag3_4 Hg1_7 3.179598 1_555
Ag3_4 Hg7_4 3.179598 1_555
Ag3_4 Hg7_5 3.179598 1_555
Ag3_5 Hg0_7 3.046156 1_555
Ag3_5 Hg0_6 3.046156 1_556
Ag3_5 Hg8_5 3.057179 1_555
Ag3_5 Hg8_4 3.057179 1_556
Ag3_5 Hg6_5 3.057179 1_555
Ag3_5 Hg6_4 3.057179 1_556
Ag3_5 Hg1_7 3.179598 1_555
Ag3_5 Hg1_6 3.179598 1_556
Ag3_5 Hg7_5 3.179598 1_555
Ag3_5 Hg7_4 3.179598 1_556
Ag3_6 Hg0_5 3.046156 1_565
Ag3_6 Hg0_4 3.046156 1_565
Ag3_6 Hg8_7 3.057179 1_555
Ag3_6 Hg8_6 3.057179 1_555
Ag3_6 Hg6_7 3.057179 1_555
Ag3_6 Hg6_6 3.057179 1_555
Ag3_6 Ag3_7 3.090419 1_555
Ag3_6 Ag3_7 3.090419 1_554
Ag3_6 Hg1_4 3.179598 1_565
Ag3_6 Hg1_5 3.179598 1_565
Ag3_6 Hg7_6 3.179598 1_555
Ag3_6 Hg7_7 3.179598 1_555
Ag3_7 Hg0_5 3.046156 1_565
Ag3_7 Hg0_4 3.046156 1_566
Ag3_7 Hg8_7 3.057179 1_555
Ag3_7 Hg8_6 3.057179 1_556
Ag3_7 Hg6_7 3.057179 1_555
Ag3_7 Hg6_6 3.057179 1_556
Ag3_7 Hg1_5 3.179598 1_565
Ag3_7 Hg1_4 3.179598 1_566
Ag3_7 Hg7_7 3.179598 1_555
Ag3_7 Hg7_6 3.179598 1_556
Hg0_0 Hg0_1 3.090419 1_555
Hg0_0 Hg0_1 3.090419 1_554
Hg0_0 Hg9_2 3.132827 1_545
Hg0_0 Hg3_0 3.132827 1_555
Hg0_0 Hg7_2 3.132827 1_545
Hg0_0 Hg1_0 3.132827 1_555
Hg0_1 Hg9_3 3.132827 1_545
Hg0_1 Hg3_1 3.132827 1_555
Hg0_1 Hg7_3 3.132827 1_545
Hg0_1 Hg1_1 3.132827 1_555
Hg0_2 Hg0_3 3.090419 1_555
Hg0_2 Hg0_3 3.090419 1_554
Hg0_2 Hg9_0 3.132827 1_555
Hg0_2 Hg3_2 3.132827 1_555
Hg0_2 Hg7_0 3.132827 1_555
Hg0_2 Hg1_2 3.132827 1_555
Hg0_3 Hg9_1 3.132827 1_555
Hg0_3 Hg3_3 3.132827 1_555
Hg0_3 Hg7_1 3.132827 1_555
Hg0_3 Hg1_3 3.132827 1_555
Hg0_4 Hg0_5 3.090419 1_555
Hg0_4 Hg0_5 3.090419 1_554
Hg0_4 Hg9_6 3.132827 1_545
Hg0_4 Hg3_4 3.132827 1_555
Hg0_4 Hg7_6 3.132827 1_545
Hg0_4 Hg1_4 3.132827 1_555
Hg0_5 Hg9_7 3.132827 1_545
Hg0_5 Hg3_5 3.132827 1_555
Hg0_5 Hg7_7 3.132827 1_545
Hg0_5 Hg1_5 3.132827 1_555
Hg0_6 Hg0_7 3.090419 1_554
Hg0_6 Hg0_7 3.090419 1_555
Hg0_6 Hg9_4 3.132827 1_555
Hg0_6 Hg3_6 3.132827 1_555
Hg0_6 Hg7_4 3.132827 1_555
Hg0_6 Hg1_6 3.132827 1_555
Hg0_7 Hg9_5 3.132827 1_555
Hg0_7 Hg3_7 3.132827 1_555
Hg0_7 Hg7_5 3.132827 1_555
Hg0_7 Hg1_7 3.132827 1_555
Hg1_0 Hg2_4 3.061085 1_455
Hg1_0 Hg8_2 3.061085 1_545
Hg1_0 Hg1_1 3.090419 1_555
Hg1_0 Hg1_1 3.090419 1_554
Hg1_0 Hg3_0 3.422220 1_555
Hg1_1 Hg2_5 3.061085 1_455
Hg1_1 Hg8_3 3.061085 1_545
Hg1_1 Hg3_1 3.422220 1_555
Hg1_2 Hg2_6 3.061085 1_455
Hg1_2 Hg8_0 3.061085 1_555
Hg1_2 Hg1_3 3.090419 1_555
Hg1_2 Hg1_3 3.090419 1_554
Hg1_2 Hg3_2 3.422220 1_555
Hg1_3 Hg2_7 3.061085 1_455
Hg1_3 Hg8_1 3.061085 1_555
Hg1_3 Hg3_3 3.422220 1_555
Hg1_4 Hg2_0 3.061085 1_555
Hg1_4 Hg8_6 3.061085 1_545
Hg1_4 Hg1_5 3.090419 1_555
Hg1_4 Hg1_5 3.090419 1_554
Hg1_4 Hg3_4 3.422220 1_555
Hg1_5 Hg2_1 3.061085 1_555
Hg1_5 Hg8_7 3.061085 1_545
Hg1_5 Hg3_5 3.422220 1_555
Hg1_6 Hg2_2 3.061085 1_555
Hg1_6 Hg8_4 3.061085 1_555
Hg1_6 Hg1_7 3.090419 1_555
Hg1_6 Hg1_7 3.090419 1_554
Hg1_6 Hg3_6 3.422220 1_555
Hg1_7 Hg2_3 3.061085 1_555
Hg1_7 Hg8_5 3.061085 1_555
Hg1_7 Hg3_7 3.422220 1_555
Hg2_0 Hg9_2 3.061085 1_545
Hg2_0 Hg2_1 3.090419 1_554
Hg2_0 Hg2_1 3.090419 1_555
Hg2_0 Hg5_4 3.132827 1_555
Hg2_0 Hg4_0 3.422220 1_555
Hg2_1 Hg9_3 3.061085 1_545
Hg2_1 Hg5_5 3.132827 1_555
Hg2_1 Hg4_1 3.422220 1_555
Hg2_2 Hg9_0 3.061085 1_555
Hg2_2 Hg2_3 3.090419 1_554
Hg2_2 Hg2_3 3.090419 1_555
Hg2_2 Hg5_6 3.132827 1_555
Hg2_2 Hg4_2 3.422220 1_555
Hg2_3 Hg9_1 3.061085 1_555
Hg2_3 Hg5_7 3.132827 1_555
Hg2_3 Hg4_3 3.422220 1_555
Hg2_4 Hg9_6 3.061085 1_545
Hg2_4 Hg2_5 3.090419 1_554
Hg2_4 Hg2_5 3.090419 1_555
Hg2_4 Hg5_0 3.132827 1_655
Hg2_4 Hg4_4 3.422220 1_555
Hg2_5 Hg9_7 3.061085 1_545
Hg2_5 Hg5_1 3.132827 1_655
Hg2_5 Hg4_5 3.422220 1_555
Hg2_6 Hg9_4 3.061085 1_555
Hg2_6 Hg2_7 3.090419 1_555
Hg2_6 Hg2_7 3.090419 1_554
Hg2_6 Hg5_2 3.132827 1_655
Hg2_6 Hg4_6 3.422220 1_555
Hg2_7 Hg9_5 3.061085 1_555
Hg2_7 Hg5_3 3.132827 1_655
Hg2_7 Hg4_7 3.422220 1_555
Hg3_0 Hg4_0 3.061085 1_555
Hg3_0 Hg6_0 3.061085 1_555
Hg3_0 Hg3_1 3.090419 1_555
Hg3_0 Hg3_1 3.090419 1_554
Hg3_1 Hg4_1 3.061085 1_555
Hg3_1 Hg6_1 3.061085 1_555
Hg3_2 Hg4_2 3.061085 1_555
Hg3_2 Hg6_2 3.061085 1_555
Hg3_2 Hg3_3 3.090419 1_555
Hg3_2 Hg3_3 3.090419 1_554
Hg3_3 Hg4_3 3.061085 1_555
Hg3_3 Hg6_3 3.061085 1_555
Hg3_4 Hg4_4 3.061085 1_555
Hg3_4 Hg6_4 3.061085 1_555
Hg3_4 Hg3_5 3.090419 1_555
Hg3_4 Hg3_5 3.090419 1_554
Hg3_5 Hg4_5 3.061085 1_555
Hg3_5 Hg6_5 3.061085 1_555
Hg3_6 Hg4_6 3.061085 1_555
Hg3_6 Hg6_6 3.061085 1_555
Hg3_6 Hg3_7 3.090419 1_554
Hg3_6 Hg3_7 3.090419 1_555
Hg3_7 Hg4_7 3.061085 1_555
Hg3_7 Hg6_7 3.061085 1_555
Hg4_0 Hg7_0 3.061085 1_555
Hg4_0 Hg4_1 3.090419 1_555
Hg4_0 Hg4_1 3.090419 1_554
Hg4_0 Hg5_4 3.132827 1_555
Hg4_1 Hg7_1 3.061085 1_555
Hg4_1 Hg5_5 3.132827 1_555
Hg4_2 Hg7_2 3.061085 1_555
Hg4_2 Hg4_3 3.090419 1_555
Hg4_2 Hg4_3 3.090419 1_554
Hg4_2 Hg5_6 3.132827 1_555
Hg4_3 Hg7_3 3.061085 1_555
Hg4_3 Hg5_7 3.132827 1_555
Hg4_4 Hg7_4 3.061085 1_555
Hg4_4 Hg4_5 3.090419 1_554
Hg4_4 Hg4_5 3.090419 1_555
Hg4_4 Hg5_0 3.132827 1_655
Hg4_5 Hg7_5 3.061085 1_555
Hg4_5 Hg5_1 3.132827 1_655
Hg4_6 Hg7_6 3.061085 1_555
Hg4_6 Hg4_7 3.090419 1_555
Hg4_6 Hg4_7 3.090419 1_554
Hg4_6 Hg5_2 3.132827 1_655
Hg4_7 Hg7_7 3.061085 1_555
Hg4_7 Hg5_3 3.132827 1_655
Hg5_0 Hg5_1 3.090419 1_554
Hg5_0 Hg5_1 3.090419 1_555
Hg5_0 Hg8_0 3.132827 1_555
Hg5_0 Hg6_0 3.132827 1_555
Hg5_1 Hg8_1 3.132827 1_555
Hg5_1 Hg6_1 3.132827 1_555
Hg5_2 Hg5_3 3.090419 1_554
Hg5_2 Hg5_3 3.090419 1_555
Hg5_2 Hg8_2 3.132827 1_555
Hg5_2 Hg6_2 3.132827 1_555
Hg5_3 Hg8_3 3.132827 1_555
Hg5_3 Hg6_3 3.132827 1_555
Hg5_4 Hg5_5 3.090419 1_555
Hg5_4 Hg5_5 3.090419 1_554
Hg5_4 Hg8_4 3.132827 1_555
Hg5_4 Hg6_4 3.132827 1_555
Hg5_5 Hg8_5 3.132827 1_555
Hg5_5 Hg6_5 3.132827 1_555
Hg5_6 Hg5_7 3.090419 1_555
Hg5_6 Hg5_7 3.090419 1_554
Hg5_6 Hg8_6 3.132827 1_555
Hg5_6 Hg6_6 3.132827 1_555
Hg5_7 Hg8_7 3.132827 1_555
Hg5_7 Hg6_7 3.132827 1_555
Hg6_0 Hg7_0 3.061085 1_555
Hg6_0 Hg6_1 3.090419 1_555
Hg6_0 Hg6_1 3.090419 1_554
Hg6_0 Hg8_0 3.422220 1_555
Hg6_1 Hg7_1 3.061085 1_555
Hg6_1 Hg8_1 3.422220 1_555
Hg6_2 Hg7_2 3.061085 1_555
Hg6_2 Hg6_3 3.090419 1_555
Hg6_2 Hg6_3 3.090419 1_554
Hg6_2 Hg8_2 3.422220 1_555
Hg6_3 Hg7_3 3.061085 1_555
Hg6_3 Hg8_3 3.422220 1_555
Hg6_4 Hg7_4 3.061085 1_555
Hg6_4 Hg6_5 3.090419 1_554
Hg6_4 Hg6_5 3.090419 1_555
Hg6_4 Hg8_4 3.422220 1_555
Hg6_5 Hg7_5 3.061085 1_555
Hg6_5 Hg8_5 3.422220 1_555
Hg6_6 Hg7_6 3.061085 1_555
Hg6_6 Hg6_7 3.090419 1_554
Hg6_6 Hg6_7 3.090419 1_555
Hg6_6 Hg8_6 3.422220 1_555
Hg6_7 Hg7_7 3.061085 1_555
Hg6_7 Hg8_7 3.422220 1_555
Hg7_0 Hg7_1 3.090419 1_555
Hg7_0 Hg7_1 3.090419 1_554
Hg7_0 Hg9_0 3.422220 1_555
Hg7_1 Hg9_1 3.422220 1_555
Hg7_2 Hg7_3 3.090419 1_555
Hg7_2 Hg7_3 3.090419 1_554
Hg7_2 Hg9_2 3.422220 1_555
Hg7_3 Hg9_3 3.422220 1_555
Hg7_4 Hg7_5 3.090419 1_555
Hg7_4 Hg7_5 3.090419 1_554
Hg7_4 Hg9_4 3.422220 1_555
Hg7_5 Hg9_5 3.422220 1_555
Hg7_6 Hg7_7 3.090419 1_554
Hg7_6 Hg7_7 3.090419 1_555
Hg7_6 Hg9_6 3.422220 1_555
Hg7_7 Hg9_7 3.422220 1_555
Hg8_0 Hg9_4 3.061085 1_455
Hg8_0 Hg8_1 3.090419 1_554
Hg8_0 Hg8_1 3.090419 1_555
Hg8_1 Hg9_5 3.061085 1_455
Hg8_2 Hg9_6 3.061085 1_455
Hg8_2 Hg8_3 3.090419 1_555
Hg8_2 Hg8_3 3.090419 1_554
Hg8_3 Hg9_7 3.061085 1_455
Hg8_4 Hg9_0 3.061085 1_555
Hg8_4 Hg8_5 3.090419 1_554
Hg8_4 Hg8_5 3.090419 1_555
Hg8_5 Hg9_1 3.061085 1_555
Hg8_6 Hg9_2 3.061085 1_555
Hg8_6 Hg8_7 3.090419 1_554
Hg8_6 Hg8_7 3.090419 1_555
Hg8_7 Hg9_3 3.061085 1_555
Hg9_0 Hg9_1 3.090419 1_555
Hg9_0 Hg9_1 3.090419 1_554
Hg9_2 Hg9_3 3.090419 1_555
Hg9_2 Hg9_3 3.090419 1_554
Hg9_4 Hg9_5 3.090419 1_555
Hg9_4 Hg9_5 3.090419 1_554
Hg9_6 Hg9_7 3.090419 1_555
Hg9_6 Hg9_7 3.090419 1_554
