# generated using pymatgen
data_Li3CoPO5
_symmetry_space_group_name_H-M   'P 1'
_cell_length_a   4.96605300
_cell_length_b   5.43448000
_cell_length_c   15.78318500
_cell_angle_alpha   90.00000000
_cell_angle_beta   90.00000000
_cell_angle_gamma   90.00000000
_symmetry_Int_Tables_number   1
_chemical_formula_structural   Li3CoPO5
_chemical_formula_sum   'Li12 Co4 P4 O20'
_cell_volume   425.95526637
_cell_formula_units_Z   4
loop_
 _symmetry_equiv_pos_site_id
 _symmetry_equiv_pos_as_xyz
  1  'x, y, z'
loop_
 _atom_site_type_symbol
 _atom_site_label
 _atom_site_symmetry_multiplicity
 _atom_site_fract_x
 _atom_site_fract_y
 _atom_site_fract_z
 _atom_site_occupancy
  Li  Li0  1  0.00687400  0.66220500  0.59598200  1
  Li  Li1  1  0.00687400  0.16220500  0.90401800  1
  Li  Li2  1  0.00670900  0.66884200  0.00259800  1
  Li  Li3  1  0.00670900  0.16884200  0.49740200  1
  Li  Li4  1  0.49145900  0.33226500  0.80224300  1
  Li  Li5  1  0.49145900  0.83226500  0.69775700  1
  Li  Li6  1  0.50687400  0.33779500  0.40401800  1
  Li  Li7  1  0.50687400  0.83779500  0.09598200  1
  Li  Li8  1  0.50670900  0.33115800  0.99740200  1
  Li  Li9  1  0.50670900  0.83115800  0.50259800  1
  Li  Li10  1  0.99145900  0.16773500  0.30224300  1
  Li  Li11  1  0.99145900  0.66773500  0.19775700  1
  Co  Co0  1  0.00570900  0.17418000  0.70342300  1
  Co  Co1  1  0.00570900  0.67418000  0.79657700  1
  Co  Co2  1  0.50570900  0.32582000  0.20342300  1
  Co  Co3  1  0.50570900  0.82582000  0.29657700  1
  P  P0  1  0.00028900  0.16643600  0.09828000  1
  P  P1  1  0.00028900  0.66643600  0.40172000  1
  P  P2  1  0.50028900  0.33356400  0.59828000  1
  P  P3  1  0.50028900  0.83356400  0.90172000  1
  O  O0  1  0.10334000  0.33491800  0.80571600  1
  O  O1  1  0.10334000  0.83491800  0.69428400  1
  O  O2  1  0.10773900  0.31018200  0.01993900  1
  O  O3  1  0.10773900  0.81018200  0.48006100  1
  O  O4  1  0.10141900  0.39624900  0.40166900  1
  O  O5  1  0.10141900  0.89624900  0.09833100  1
  O  O6  1  0.09534400  0.29792900  0.18170300  1
  O  O7  1  0.09534400  0.79792900  0.31829700  1
  O  O8  1  0.18491900  0.32794200  0.59617000  1
  O  O9  1  0.18491900  0.82794200  0.90383000  1
  O  O10  1  0.60334000  0.66508200  0.19428400  1
  O  O11  1  0.60334000  0.16508200  0.30571600  1
  O  O12  1  0.60773900  0.18981800  0.51993900  1
  O  O13  1  0.60773900  0.68981800  0.98006100  1
  O  O14  1  0.60141900  0.10375100  0.90166900  1
  O  O15  1  0.60141900  0.60375100  0.59833100  1
  O  O16  1  0.59534400  0.20207100  0.68170300  1
  O  O17  1  0.59534400  0.70207100  0.81829700  1
  O  O18  1  0.68491900  0.17205800  0.09617000  1
  O  O19  1  0.68491900  0.67205800  0.40383000  1
loop_
_geom_bond_atom_site_label_1
_geom_bond_atom_site_label_2
_geom_bond_distance
_geom_bond_site_symmetry_2
Li0 O1 1.875549 1_555
Li0 O8 2.020303 1_555
Li0 O15 2.038753 1_455
Li0 O3 2.060352 1_555
Li1 O0 1.875549 1_555
Li1 O9 2.020303 1_545
Li1 O14 2.038753 1_455
Li1 O2 2.060352 1_556
Li2 O9 1.990199 1_554
Li2 O5 2.007871 1_555
Li2 O13 2.016208 1_454
Li2 O2 2.031193 1_555
Li3 O8 1.990199 1_555
Li3 O4 2.007871 1_555
Li3 O12 2.016208 1_455
Li3 O3 2.031193 1_545
Li4 O0 1.928253 1_555
Li4 O14 2.074359 1_555
Li4 O17 2.090278 1_555
Li4 O16 2.094346 1_555
Li5 O1 1.928253 1_555
Li5 O15 2.074359 1_555
Li5 O16 2.090278 1_565
Li5 O17 2.094346 1_555
Li6 O11 1.875549 1_555
Li6 O19 2.020303 1_555
Li6 O4 2.038753 1_555
Li6 O12 2.060352 1_555
Li7 O10 1.875549 1_555
Li7 O18 2.020303 1_565
Li7 O5 2.038753 1_555
Li7 O13 2.060352 1_554
Li8 O18 1.990199 1_556
Li8 O14 2.007871 1_555
Li8 O2 2.016208 1_556
Li8 O13 2.031193 1_555
Li9 O19 1.990199 1_555
Li9 O15 2.007871 1_555
Li9 O3 2.016208 1_555
Li9 O12 2.031193 1_565
Li10 O11 1.928253 1_555
Li10 O4 2.074359 1_655
Li10 O7 2.090278 1_645
Li10 O6 2.094346 1_655
Li11 O10 1.928253 1_555
Li11 O5 2.074359 1_655
Li11 O6 2.090278 1_655
Li11 O7 2.094346 1_655
Co0 O0 1.898621 1_555
Co0 O1 1.911845 1_545
Co0 O16 2.072078 1_455
Co0 O8 2.087066 1_555
Co1 O1 1.898621 1_555
Co1 O0 1.911845 1_555
Co1 O17 2.072078 1_455
Co1 O9 2.087066 1_555
Co2 O11 1.898621 1_555
Co2 O10 1.911845 1_555
Co2 O6 2.072078 1_555
Co2 O18 2.087066 1_555
Co3 O10 1.898621 1_555
Co3 O11 1.911845 1_565
Co3 O7 2.072078 1_555
Co3 O19 2.087066 1_555
O2 P0 1.556869 1_555
O3 P1 1.556869 1_555
O4 P1 1.551839 1_555
O5 P0 1.551839 1_565
O6 P0 1.570708 1_555
O7 P1 1.570708 1_555
O8 P2 1.566796 1_555
O9 P3 1.566796 1_555
O12 P2 1.556869 1_555
O13 P3 1.556869 1_555
O14 P3 1.551839 1_545
O15 P2 1.551839 1_555
O16 P2 1.570708 1_555
O17 P3 1.570708 1_555
O18 P0 1.566796 1_655
O19 P1 1.566796 1_655
