# generated using pymatgen
data_Rb2SnO3
_symmetry_space_group_name_H-M   'P 1'
_cell_length_a   7.06682667
_cell_length_b   7.06682667
_cell_length_c   13.66465500
_cell_angle_alpha   90.00000000
_cell_angle_beta   90.00000000
_cell_angle_gamma   128.26545283
_symmetry_Int_Tables_number   1
_chemical_formula_structural   Rb2SnO3
_chemical_formula_sum   'Rb8 Sn4 O12'
_cell_volume   535.79683915
_cell_formula_units_Z   4
loop_
 _symmetry_equiv_pos_site_id
 _symmetry_equiv_pos_as_xyz
  1  'x, y, z'
loop_
 _atom_site_type_symbol
 _atom_site_label
 _atom_site_symmetry_multiplicity
 _atom_site_fract_x
 _atom_site_fract_y
 _atom_site_fract_z
 _atom_site_occupancy
  Rb  Rb0  1  0.94802900  0.05197100  0.13604500  1
  Rb  Rb1  1  0.87327200  0.12672800  0.57622600  1
  Rb  Rb2  1  0.62672800  0.37327200  0.07622600  1
  Rb  Rb3  1  0.44802900  0.55197100  0.36395500  1
  Rb  Rb4  1  0.05197100  0.94802900  0.86395500  1
  Rb  Rb5  1  0.37327200  0.62672800  0.92377400  1
  Rb  Rb6  1  0.55197100  0.44802900  0.63604500  1
  Rb  Rb7  1  0.12672800  0.87327200  0.42377400  1
  Sn  Sn0  1  0.75878200  0.24121800  0.33684000  1
  Sn  Sn1  1  0.74121800  0.25878200  0.83684000  1
  Sn  Sn2  1  0.25878200  0.74121800  0.16316000  1
  Sn  Sn3  1  0.24121800  0.75878200  0.66316000  1
  O  O0  1  0.46470000  0.03530000  0.25000000  1
  O  O1  1  0.03530000  0.46470000  0.75000000  1
  O  O2  1  0.91076300  0.08923700  0.35914600  1
  O  O3  1  0.65903200  0.34096800  0.44521700  1
  O  O4  1  0.34096800  0.65903200  0.55478300  1
  O  O5  1  0.15903200  0.84096800  0.05478300  1
  O  O6  1  0.84096800  0.15903200  0.94521700  1
  O  O7  1  0.58923700  0.41076300  0.85914600  1
  O  O8  1  0.41076300  0.58923700  0.14085400  1
  O  O9  1  0.08923700  0.91076300  0.64085400  1
  O  O10  1  0.96470000  0.53530000  0.25000000  1
  O  O11  1  0.53530000  0.96470000  0.75000000  1
loop_
_geom_bond_atom_site_label_1
_geom_bond_atom_site_label_2
_geom_bond_distance
_geom_bond_site_symmetry_2
O0 Sn0 2.024571 1_555
O0 Sn2 2.024571 1_545
O0 Rb7 3.044129 1_545
O0 Rb2 3.044129 1_555
O1 Sn3 2.024571 1_555
O1 Sn1 2.024571 1_455
O1 Rb1 3.044129 1_455
O1 Rb5 3.044129 1_555
O2 Sn0 1.956714 1_555
O2 Rb7 2.885035 1_645
O2 Rb1 3.004398 1_555
O2 Rb0 3.085217 1_555
O2 Rb3 3.120076 1_655
O2 Rb3 3.120076 1_545
O3 Sn0 1.949988 1_555
O3 Rb3 2.904117 1_555
O3 Rb6 2.941667 1_555
O3 Rb7 3.124192 1_655
O3 Rb7 3.124192 1_545
O3 Rb1 3.260106 1_555
O4 Sn3 1.949988 1_555
O4 Rb6 2.904117 1_555
O4 Rb3 2.941667 1_555
O4 Rb1 3.124192 1_565
O4 Rb1 3.124192 1_455
O4 Rb7 3.260106 1_555
O5 Sn2 1.949988 1_555
O5 Rb0 2.904117 1_465
O5 Rb4 2.941667 1_554
O5 Rb2 3.124192 1_455
O5 Rb2 3.124192 1_565
O5 Rb5 3.260106 1_554
O6 Sn1 1.949988 1_555
O6 Rb4 2.904117 1_645
O6 Rb0 2.941667 1_556
O6 Rb5 3.124192 1_545
O6 Rb5 3.124192 1_655
O6 Rb2 3.260106 1_556
O7 Sn1 1.956714 1_555
O7 Rb5 2.885035 1_555
O7 Rb2 3.004398 1_556
O7 Rb6 3.085217 1_555
O7 Rb4 3.120076 1_655
O7 Rb4 3.120076 1_545
O8 Sn2 1.956714 1_555
O8 Rb2 2.885035 1_555
O8 Rb5 3.004398 1_554
O8 Rb3 3.085217 1_555
O8 Rb0 3.120076 1_565
O8 Rb0 3.120076 1_455
O9 Sn3 1.956714 1_555
O9 Rb1 2.885035 1_465
O9 Rb7 3.004398 1_555
O9 Rb4 3.085217 1_555
O9 Rb6 3.120076 1_565
O9 Rb6 3.120076 1_455
O10 Sn2 2.024571 1_655
O10 Sn0 2.024571 1_555
O10 Rb7 3.044129 1_655
O10 Rb2 3.044129 1_555
O11 Sn3 2.024571 1_555
O11 Sn1 2.024571 1_565
O11 Rb1 3.044129 1_565
O11 Rb5 3.044129 1_555
