# generated using pymatgen
data_Co6O5F7
_symmetry_space_group_name_H-M   'P 1'
_cell_length_a   4.55021400
_cell_length_b   5.46778767
_cell_length_c   7.62441464
_cell_angle_alpha   92.95324401
_cell_angle_beta   91.35862625
_cell_angle_gamma   90.56054019
_symmetry_Int_Tables_number   1
_chemical_formula_structural   Co6O5F7
_chemical_formula_sum   'Co6 O5 F7'
_cell_volume   189.37572635
_cell_formula_units_Z   1
loop_
 _symmetry_equiv_pos_site_id
 _symmetry_equiv_pos_as_xyz
  1  'x, y, z'
loop_
 _atom_site_type_symbol
 _atom_site_label
 _atom_site_symmetry_multiplicity
 _atom_site_fract_x
 _atom_site_fract_y
 _atom_site_fract_z
 _atom_site_occupancy
  Co  Co0  1  0.55426300  0.48362000  0.99245200  1
  Co  Co1  1  0.47959000  0.18131300  0.65924800  1
  Co  Co2  1  0.45840200  0.83715200  0.34014000  1
  Co  Co3  1  0.00922000  0.31832900  0.32784900  1
  Co  Co4  1  0.01888200  0.65955400  0.65968900  1
  Co  Co5  1  0.99881100  0.01188700  0.01424800  1
  O  O0  1  0.20180800  0.36461300  0.55142500  1
  O  O1  1  0.18396200  0.04243600  0.23046600  1
  O  O2  1  0.29200400  0.88127000  0.57928800  1
  O  O3  1  0.68922300  0.46638800  0.75764200  1
  O  O4  1  0.81137600  0.29057900  0.10468500  1
  F  F0  1  0.19692100  0.71135600  0.91752900  1
  F  F1  1  0.29889900  0.52046900  0.22480000  1
  F  F2  1  0.28858200  0.20301300  0.90619100  1
  F  F3  1  0.71974700  0.12705100  0.43285600  1
  F  F4  1  0.70168100  0.80385100  0.10011900  1
  F  F5  1  0.79094000  0.97794100  0.78214400  1
  F  F6  1  0.80568800  0.61917900  0.41923300  1
loop_
_geom_bond_atom_site_label_1
_geom_bond_atom_site_label_2
_geom_bond_distance
_geom_bond_site_symmetry_2
Co0 O4 1.812403 1_556
Co0 O3 1.904472 1_555
Co0 F4 1.998116 1_556
Co0 F2 2.017451 1_555
Co0 F0 2.142325 1_555
Co0 F1 2.143464 1_556
Co1 O0 1.827115 1_555
Co1 O2 1.906979 1_545
Co1 O3 1.928417 1_555
Co1 F5 2.048615 1_545
Co1 F3 2.074759 1_555
Co1 F2 2.090688 1_555
Co2 O1 1.895560 1_565
Co2 O2 1.994952 1_555
Co2 F1 2.021538 1_555
Co2 F3 2.057720 1_565
Co2 F6 2.084933 1_555
Co2 F4 2.161755 1_555
Co3 O1 1.842604 1_555
Co3 F3 1.891846 1_455
Co3 O0 1.902139 1_555
Co3 O4 1.904367 1_455
Co3 F1 1.919995 1_555
Co3 F6 1.997855 1_455
Co4 O2 1.863633 1_555
Co4 O0 1.973974 1_555
Co4 O3 2.006679 1_455
Co4 F6 2.054429 1_455
Co4 F0 2.112772 1_555
Co4 F5 2.211754 1_455
Co5 O1 1.832580 1_655
Co5 O4 1.862777 1_555
Co5 F2 1.903321 1_654
Co5 F4 1.907641 1_545
Co5 F5 1.985983 1_544
Co5 F0 1.998068 1_644
F0 F1 2.646338 1_556
F0 F4 2.687391 1_556
F0 F4 2.714844 1_456
F0 F2 2.722494 1_565
F0 F2 2.811893 1_555
F1 O4 2.658988 1_455
F1 O1 2.663307 1_555
F1 F6 2.745478 1_555
F1 F6 2.761240 1_455
F2 F5 2.694511 1_445
F2 F5 2.769779 1_545
F3 F6 2.722963 1_555
F3 F6 2.805091 1_545
F4 O1 2.685555 1_665
F4 F5 2.688039 1_554
F4 F6 2.715000 1_555
F5 O3 2.730088 1_565
F5 O2 2.747985 1_555
F6 O3 2.813245 1_555
