# generated using pymatgen
data_V2PH10C2N2O8F
_symmetry_space_group_name_H-M   'P 1'
_cell_length_a   8.40997400
_cell_length_b   9.28677500
_cell_length_c   12.61299800
_cell_angle_alpha   90.00000000
_cell_angle_beta   90.00000000
_cell_angle_gamma   90.00000000
_symmetry_Int_Tables_number   1
_chemical_formula_structural   V2PH10C2N2O8F
_chemical_formula_sum   'V8 P4 H40 C8 N8 O32 F4'
_cell_volume   985.09452107
_cell_formula_units_Z   4
loop_
 _symmetry_equiv_pos_site_id
 _symmetry_equiv_pos_as_xyz
  1  'x, y, z'
loop_
 _atom_site_type_symbol
 _atom_site_label
 _atom_site_symmetry_multiplicity
 _atom_site_fract_x
 _atom_site_fract_y
 _atom_site_fract_z
 _atom_site_occupancy
  V  V0  1  0.25483600  0.56705300  0.10554400  1
  V  V1  1  0.24516400  0.43294700  0.60554400  1
  V  V2  1  0.75483600  0.93294700  0.89445600  1
  V  V3  1  0.74516400  0.06705300  0.39445600  1
  V  V4  1  0.52279600  0.29316000  0.00382800  1
  V  V5  1  0.97720400  0.70684000  0.50382800  1
  V  V6  1  0.02279600  0.20684000  0.99617200  1
  V  V7  1  0.47720400  0.79316000  0.49617200  1
  P  P0  1  0.25858400  0.56729600  0.36446300  1
  P  P1  1  0.24141600  0.43270400  0.86446300  1
  P  P2  1  0.75858400  0.93270400  0.63553700  1
  P  P3  1  0.74141600  0.06729600  0.13553700  1
  H  H0  1  0.38813300  0.16641200  0.67789600  1
  H  H1  1  0.11186700  0.83358800  0.17789600  1
  H  H2  1  0.88813300  0.33358800  0.32210400  1
  H  H3  1  0.61186700  0.66641200  0.82210400  1
  H  H4  1  0.45682900  0.99454700  0.69308200  1
  H  H5  1  0.04317100  0.00545300  0.19308200  1
  H  H6  1  0.95682900  0.50545300  0.30691800  1
  H  H7  1  0.54317100  0.49454700  0.80691800  1
  H  H8  1  0.43066400  0.10151000  0.79860600  1
  H  H9  1  0.06933600  0.89849000  0.29860600  1
  H  H10  1  0.93066400  0.39849000  0.20139400  1
  H  H11  1  0.56933600  0.60151000  0.70139400  1
  H  H12  1  0.22649500  0.73911500  0.91271900  1
  H  H13  1  0.27350500  0.26088500  0.41271900  1
  H  H14  1  0.72649500  0.76088500  0.08728100  1
  H  H15  1  0.77350500  0.23911500  0.58728100  1
  H  H16  1  0.19448800  0.91790000  0.93500600  1
  H  H17  1  0.30551200  0.08210000  0.43500600  1
  H  H18  1  0.69448800  0.58210000  0.06499400  1
  H  H19  1  0.80551200  0.41790000  0.56499400  1
  H  H20  1  0.37701800  0.85554200  0.89904000  1
  H  H21  1  0.12298200  0.14445800  0.39904000  1
  H  H22  1  0.87701800  0.64445800  0.10096000  1
  H  H23  1  0.62298200  0.35554200  0.60096000  1
  H  H24  1  0.29209800  0.79216700  0.72743100  1
  H  H25  1  0.20790200  0.20783300  0.22743100  1
  H  H26  1  0.79209800  0.70783300  0.27256900  1
  H  H27  1  0.70790200  0.29216700  0.77256900  1
  H  H28  1  0.09118100  0.81816500  0.76244000  1
  H  H29  1  0.40881900  0.18183500  0.26244000  1
  H  H30  1  0.59118100  0.68183500  0.23756000  1
  H  H31  1  0.90881900  0.31816500  0.73756000  1
  H  H32  1  0.14908400  0.08745600  0.78809900  1
  H  H33  1  0.35091600  0.91254400  0.28809900  1
  H  H34  1  0.64908400  0.41254400  0.21190100  1
  H  H35  1  0.85091600  0.58745600  0.71190100  1
  H  H36  1  0.16119200  0.02044900  0.65715000  1
  H  H37  1  0.33880800  0.97955100  0.15715000  1
  H  H38  1  0.66119200  0.47955100  0.34285000  1
  H  H39  1  0.83880800  0.52044900  0.84285000  1
  C  C0  1  0.21140800  0.86052000  0.77351700  1
  C  C1  1  0.28859200  0.13948000  0.27351700  1
  C  C2  1  0.71140800  0.63948000  0.22648300  1
  C  C3  1  0.78859200  0.36052000  0.72648300  1
  C  C4  1  0.21617100  0.01539500  0.73564800  1
  C  C5  1  0.28382900  0.98460500  0.23564800  1
  C  C6  1  0.71617100  0.48460500  0.26435200  1
  C  C7  1  0.78382900  0.51539500  0.76435200  1
  N  N0  1  0.38256900  0.07231600  0.72575100  1
  N  N1  1  0.11743100  0.92768400  0.22575100  1
  N  N2  1  0.88256900  0.42768400  0.27424900  1
  N  N3  1  0.61743100  0.57231600  0.77424900  1
  N  N4  1  0.25401100  0.84367600  0.88794100  1
  N  N5  1  0.24598900  0.15632400  0.38794100  1
  N  N6  1  0.75401100  0.65632400  0.11205900  1
  N  N7  1  0.74598900  0.34367600  0.61205900  1
  O  O0  1  0.23278200  0.55598900  0.94664800  1
  O  O1  1  0.26721800  0.44401100  0.44664800  1
  O  O2  1  0.73278200  0.94401100  0.05335200  1
  O  O3  1  0.76721800  0.05598900  0.55335200  1
  O  O4  1  0.10024200  0.32702900  0.88032700  1
  O  O5  1  0.39975800  0.67297100  0.38032700  1
  O  O6  1  0.60024200  0.17297100  0.11967300  1
  O  O7  1  0.89975800  0.82702900  0.61967300  1
  O  O8  1  0.23214200  0.50242600  0.75368700  1
  O  O9  1  0.26785800  0.49757400  0.25368700  1
  O  O10  1  0.73214200  0.99757400  0.24631300  1
  O  O11  1  0.76785800  0.00242600  0.74631300  1
  O  O12  1  0.40308900  0.35086200  0.87211800  1
  O  O13  1  0.09691100  0.64913800  0.37211800  1
  O  O14  1  0.90308900  0.14913800  0.12788200  1
  O  O15  1  0.59691100  0.85086200  0.62788200  1
  O  O16  1  0.91292200  0.16765300  0.37845600  1
  O  O17  1  0.58707800  0.83234700  0.87845600  1
  O  O18  1  0.41292200  0.33234700  0.62154400  1
  O  O19  1  0.08707800  0.66765300  0.12154400  1
  O  O20  1  0.60343400  0.18662500  0.39367900  1
  O  O21  1  0.89656600  0.81337500  0.89367900  1
  O  O22  1  0.10343400  0.31337500  0.60632100  1
  O  O23  1  0.39656600  0.68662500  0.10632100  1
  O  O24  1  0.88313400  0.12137100  0.92149900  1
  O  O25  1  0.61686600  0.87862900  0.42149900  1
  O  O26  1  0.38313400  0.37862900  0.07850100  1
  O  O27  1  0.11686600  0.62137100  0.57850100  1
  O  O28  1  0.17390600  0.09627100  0.01045900  1
  O  O29  1  0.32609400  0.90372900  0.51045900  1
  O  O30  1  0.67390600  0.40372900  0.98954100  1
  O  O31  1  0.82609400  0.59627100  0.48954100  1
  F  F0  1  0.54883800  0.12343300  0.91722500  1
  F  F1  1  0.95116200  0.87656700  0.41722500  1
  F  F2  1  0.04883800  0.37656700  0.08277500  1
  F  F3  1  0.45116200  0.62343300  0.58277500  1
loop_
_geom_bond_atom_site_label_1
_geom_bond_atom_site_label_2
_geom_bond_distance
_geom_bond_site_symmetry_2
H0 N0 1.063075 1_555
H0 O18 1.709777 1_555
H1 N1 1.063075 1_555
H1 O19 1.709777 1_555
H2 N2 1.063075 1_555
H2 O16 1.709777 1_555
H3 N3 1.063075 1_555
H3 O17 1.709777 1_555
H4 N0 1.039916 1_565
H4 O15 1.960795 1_555
H5 N1 1.039916 1_545
H5 O14 1.960795 1_455
H6 N2 1.039916 1_555
H6 O13 1.960795 1_655
H7 N3 1.039916 1_555
H7 O12 1.960795 1_555
H8 N0 1.039962 1_555
H9 N1 1.039962 1_555
H10 N2 1.039962 1_555
H11 N3 1.039962 1_555
H12 N4 1.046007 1_555
H12 O0 1.754464 1_555
H13 N5 1.046007 1_555
H13 O1 1.754464 1_555
H14 N6 1.046007 1_555
H14 O2 1.754464 1_555
H15 N7 1.046007 1_555
H15 O3 1.754464 1_555
H16 N4 1.038326 1_555
H16 O28 1.918238 1_566
H17 N5 1.038326 1_555
H17 O29 1.918238 1_545
H18 N6 1.038326 1_555
H18 O30 1.918238 1_554
H19 N7 1.038326 1_555
H19 O31 1.918238 1_555
H20 N4 1.049715 1_555
H20 O17 1.798521 1_555
H21 N5 1.049715 1_555
H21 O16 1.798521 1_455
H22 N6 1.049715 1_555
H22 O19 1.798521 1_655
H23 N7 1.049715 1_555
H23 O18 1.798521 1_555
C0 H28 1.093880 1_555
C0 H24 1.096053 1_555
C0 N4 1.495243 1_555
C0 C4 1.516055 1_565
C1 H29 1.093880 1_555
C1 H25 1.096053 1_555
C1 N5 1.495243 1_555
C1 C5 1.516055 1_545
C2 H30 1.093880 1_555
C2 H26 1.096053 1_555
C2 N6 1.495243 1_555
C2 C6 1.516055 1_555
C3 H31 1.093880 1_555
C3 H27 1.096053 1_555
C3 N7 1.495243 1_555
C3 C7 1.516055 1_555
C4 H36 1.093745 1_555
C4 H32 1.097195 1_555
C4 N0 1.501114 1_555
C5 H37 1.093745 1_555
C5 H33 1.097195 1_555
C5 N1 1.501114 1_555
C6 H38 1.093745 1_555
C6 H34 1.097195 1_555
C6 N2 1.501114 1_555
C7 H39 1.093745 1_555
C7 H35 1.097195 1_555
C7 N3 1.501114 1_555
O0 P1 1.546173 1_555
O0 V0 2.015340 1_556
O1 P0 1.546173 1_555
O1 V1 2.015340 1_555
O2 P3 1.546173 1_565
O2 V2 2.015340 1_554
O3 P2 1.546173 1_545
O3 V3 2.015340 1_555
O4 P1 1.553304 1_555
O4 V6 1.950645 1_555
O5 P0 1.553304 1_555
O5 V7 1.950645 1_555
O6 P3 1.553304 1_555
O6 V4 1.950645 1_555
O7 P2 1.553304 1_555
O7 V5 1.950645 1_555
O8 P1 1.541929 1_555
O8 V1 1.979828 1_555
O9 P0 1.541929 1_555
O9 V0 1.979828 1_555
O10 P3 1.541929 1_565
O10 V3 1.979828 1_565
O11 P2 1.541929 1_545
O11 V2 1.979828 1_545
O12 P1 1.560669 1_555
O12 V4 2.015054 1_556
O13 P0 1.560669 1_555
O13 V5 2.015054 1_455
O14 P3 1.560669 1_555
O14 V6 2.015054 1_654
O15 P2 1.560669 1_555
O15 V7 2.015054 1_555
O16 V3 1.704118 1_555
O17 V2 1.704118 1_555
O18 V1 1.704118 1_555
O19 V0 1.704118 1_555
O20 V3 1.629081 1_555
O21 V2 1.629081 1_555
O22 V1 1.629081 1_555
O23 V0 1.629081 1_555
O24 V6 1.701960 1_655
O24 V2 2.083873 1_545
O25 V7 1.701960 1_555
O25 V3 2.083873 1_565
O26 V4 1.701960 1_555
O26 V0 2.083873 1_555
O27 V5 1.701960 1_455
O27 V1 2.083873 1_555
O28 V6 1.643735 1_554
O29 V7 1.643735 1_555
O30 V4 1.643735 1_556
O31 V5 1.643735 1_555
F0 H8 1.807652 1_555
F0 V4 1.930180 1_556
F0 V2 2.492625 1_545
F1 H9 1.807652 1_655
F1 V5 1.930180 1_555
F1 V3 2.492625 1_565
F2 H10 1.807652 1_455
F2 V6 1.930180 1_554
F2 V0 2.492625 1_555
F3 H11 1.807652 1_555
F3 V7 1.930180 1_555
F3 V1 2.492625 1_555
