# generated using pymatgen
data_Li2Cr3P9O28
_symmetry_space_group_name_H-M   'P 1'
_cell_length_a   7.07105700
_cell_length_b   9.04343640
_cell_length_c   9.23014394
_cell_angle_alpha   111.64577004
_cell_angle_beta   109.83610060
_cell_angle_gamma   99.27593301
_symmetry_Int_Tables_number   1
_chemical_formula_structural   Li2Cr3P9O28
_chemical_formula_sum   'Li2 Cr3 P9 O28'
_cell_volume   487.60072738
_cell_formula_units_Z   1
loop_
 _symmetry_equiv_pos_site_id
 _symmetry_equiv_pos_as_xyz
  1  'x, y, z'
loop_
 _atom_site_type_symbol
 _atom_site_label
 _atom_site_symmetry_multiplicity
 _atom_site_fract_x
 _atom_site_fract_y
 _atom_site_fract_z
 _atom_site_occupancy
  Li  Li0  1  0.70480100  0.95665800  0.22164000  1
  Li  Li1  1  0.29519900  0.04334200  0.77836000  1
  Cr  Cr0  1  0.50000000  0.50000000  0.00000000  1
  Cr  Cr1  1  0.24262100  0.98743000  0.24341000  1
  Cr  Cr2  1  0.75737900  0.01257000  0.75659000  1
  P  P0  1  0.30666400  0.75351400  0.44749200  1
  P  P1  1  0.78951700  0.76126300  0.93127000  1
  P  P2  1  0.68675600  0.70026000  0.41773100  1
  P  P3  1  0.15551300  0.67900000  0.89508800  1
  P  P4  1  0.00000000  0.50000000  0.50000000  1
  P  P5  1  0.31324400  0.29974000  0.58226900  1
  P  P6  1  0.84448700  0.32100000  0.10491200  1
  P  P7  1  0.69333600  0.24648600  0.55250800  1
  P  P8  1  0.21048300  0.23873700  0.06873000  1
  O  O0  1  0.42349500  0.91047700  0.62444100  1
  O  O1  1  0.92240300  0.90803300  0.11546800  1
  O  O2  1  0.28679200  0.86298300  0.02654100  1
  O  O3  1  0.81179400  0.88143600  0.55457600  1
  O  O4  1  0.73509100  0.81266400  0.78850700  1
  O  O5  1  0.22946000  0.79105500  0.29593200  1
  O  O6  1  0.64302400  0.69365600  0.24212500  1
  O  O7  1  0.11894200  0.66399400  0.70945800  1
  O  O8  1  0.58901000  0.65933900  0.91980100  1
  O  O9  1  0.11205500  0.63185100  0.43631000  1
  O  O10  1  0.46105900  0.64320900  0.42386900  1
  O  O11  1  0.92568200  0.63833100  0.89297400  1
  O  O12  1  0.23071100  0.54647300  0.93368100  1
  O  O13  1  0.77864600  0.56398900  0.45371000  1
  O  O14  1  0.76928900  0.45352700  0.06631900  1
  O  O15  1  0.22135400  0.43601100  0.54629000  1
  O  O16  1  0.53894100  0.35679100  0.57613100  1
  O  O17  1  0.07431800  0.36166900  0.10702600  1
  O  O18  1  0.41099000  0.34066100  0.08019900  1
  O  O19  1  0.88794500  0.36814900  0.56369000  1
  O  O20  1  0.35697600  0.30634400  0.75787500  1
  O  O21  1  0.88105800  0.33600600  0.29054200  1
  O  O22  1  0.26490900  0.18733600  0.21149300  1
  O  O23  1  0.77054000  0.20894500  0.70406800  1
  O  O24  1  0.71320800  0.13701700  0.97345900  1
  O  O25  1  0.18820600  0.11856400  0.44542400  1
  O  O26  1  0.57650500  0.08952300  0.37555900  1
  O  O27  1  0.07759700  0.09196700  0.88453200  1
loop_
_geom_bond_atom_site_label_1
_geom_bond_atom_site_label_2
_geom_bond_distance
_geom_bond_site_symmetry_2
Li0 O26 2.062000 1_565
Li0 O1 2.108271 1_555
Li0 O6 2.436481 1_555
Li0 O2 2.674336 1_555
Li0 O8 2.806718 1_554
Li1 O0 2.062000 1_545
Li1 O27 2.108271 1_555
Li1 O20 2.436481 1_555
Li1 O24 2.674336 1_555
Li1 O18 2.806718 1_556
Cr0 O18 1.957357 1_555
Cr0 O8 1.957357 1_554
Cr0 O12 1.958033 1_554
Cr0 O14 1.958033 1_555
Cr0 O6 2.022902 1_555
Cr0 O20 2.022902 1_554
Cr1 O22 1.926776 1_565
Cr1 O5 2.002497 1_555
Cr1 O25 2.008458 1_565
Cr1 O1 2.018100 1_455
Cr1 O2 2.060759 1_555
Cr1 O26 2.103867 1_565
Cr2 O4 1.926776 1_545
Cr2 O23 2.002497 1_555
Cr2 O3 2.008458 1_545
Cr2 O27 2.018100 1_655
Cr2 O24 2.060759 1_555
Cr2 O0 2.103867 1_545
O0 P0 1.536511 1_555
O1 P1 1.544080 1_554
O2 P3 1.533169 1_554
O3 P2 1.519865 1_555
O4 P1 1.505315 1_555
O5 P0 1.504027 1_555
O6 P2 1.519499 1_555
O7 P3 1.592938 1_555
O7 P4 1.738881 1_555
O8 P1 1.508582 1_555
O9 P0 1.564152 1_555
O9 P4 1.709928 1_555
O10 P0 1.608317 1_555
O10 P2 1.622908 1_555
O11 P3 1.599141 1_655
O11 P1 1.604391 1_555
O12 P3 1.495957 1_555
O13 P2 1.569968 1_555
O13 P4 1.728537 1_655
O14 P6 1.495957 1_555
O15 P5 1.569968 1_555
O15 P4 1.728537 1_555
O16 P7 1.608317 1_555
O16 P5 1.622908 1_555
O17 P6 1.599141 1_455
O17 P8 1.604391 1_555
O18 P8 1.508582 1_555
O19 P7 1.564152 1_555
O19 P4 1.709928 1_655
O20 P5 1.519499 1_555
O21 P6 1.592938 1_555
O21 P4 1.738881 1_655
O22 P8 1.505315 1_555
O23 P7 1.504027 1_555
O24 P6 1.533169 1_556
O25 P5 1.519865 1_555
O26 P7 1.536511 1_555
O27 P8 1.544080 1_556
