# generated using pymatgen
data_Li4MnFe3(BO3)4
_symmetry_space_group_name_H-M   'P 1'
_cell_length_a   5.24212300
_cell_length_b   6.02598764
_cell_length_c   16.13566776
_cell_angle_alpha   81.59488248
_cell_angle_beta   89.51560483
_cell_angle_gamma   88.72641632
_symmetry_Int_Tables_number   1
_chemical_formula_structural   Li4MnFe3(BO3)4
_chemical_formula_sum   'Li8 Mn2 Fe6 B8 O24'
_cell_volume   504.10291028
_cell_formula_units_Z   2
loop_
 _symmetry_equiv_pos_site_id
 _symmetry_equiv_pos_as_xyz
  1  'x, y, z'
loop_
 _atom_site_type_symbol
 _atom_site_label
 _atom_site_symmetry_multiplicity
 _atom_site_fract_x
 _atom_site_fract_y
 _atom_site_fract_z
 _atom_site_occupancy
  Li  Li0  1  0.84265000  0.81590100  0.13830000  1
  Li  Li1  1  0.15735000  0.18409900  0.86170000  1
  Li  Li2  1  0.65161900  0.93482100  0.61282400  1
  Li  Li3  1  0.34838100  0.06517900  0.38717600  1
  Li  Li4  1  0.65546300  0.43879500  0.10827800  1
  Li  Li5  1  0.34453700  0.56120500  0.89172200  1
  Li  Li6  1  0.84793500  0.31695800  0.63976300  1
  Li  Li7  1  0.15206500  0.68304200  0.36023700  1
  Mn  Mn0  1  0.67047000  0.52030500  0.29164200  1
  Mn  Mn1  1  0.32953000  0.47969500  0.70835800  1
  Fe  Fe0  1  0.66296300  0.02287300  0.79235800  1
  Fe  Fe1  1  0.17040800  0.78085200  0.53683600  1
  Fe  Fe2  1  0.33703700  0.97712700  0.20764200  1
  Fe  Fe3  1  0.16263000  0.27361900  0.04260300  1
  Fe  Fe4  1  0.82959200  0.21914800  0.46316400  1
  Fe  Fe5  1  0.83737000  0.72638100  0.95739700  1
  B  B0  1  0.32710600  0.78980900  0.04591300  1
  B  B1  1  0.83013700  0.03611200  0.29638700  1
  B  B2  1  0.67289400  0.21019100  0.95408700  1
  B  B3  1  0.16986300  0.96388800  0.70361300  1
  B  B4  1  0.82928100  0.53553500  0.79781800  1
  B  B5  1  0.32774700  0.28688500  0.54463300  1
  B  B6  1  0.17071900  0.46446500  0.20218200  1
  B  B7  1  0.67225300  0.71311500  0.45536700  1
  O  O0  1  0.58708400  0.76296900  0.05592000  1
  O  O1  1  0.18226300  0.91777500  0.09601000  1
  O  O2  1  0.70411200  0.92800600  0.23823300  1
  O  O3  1  0.29588800  0.07199400  0.76176700  1
  O  O4  1  0.79178200  0.82821500  0.51282200  1
  O  O5  1  0.81773700  0.08222500  0.90399000  1
  O  O6  1  0.31360100  0.83526100  0.65369800  1
  O  O7  1  0.08950700  0.00904700  0.30682900  1
  O  O8  1  0.41291600  0.23703100  0.94408000  1
  O  O9  1  0.91049300  0.99095300  0.69317100  1
  O  O10  1  0.68639900  0.16473900  0.34630200  1
  O  O11  1  0.20821800  0.17178500  0.48717800  1
  O  O12  1  0.79712500  0.31942500  0.01202800  1
  O  O13  1  0.32014200  0.33452500  0.15366200  1
  O  O14  1  0.08871800  0.51111800  0.81083100  1
  O  O15  1  0.58749600  0.26325400  0.55773500  1
  O  O16  1  0.91128200  0.48888200  0.18916900  1
  O  O17  1  0.67985800  0.66547500  0.84633800  1
  O  O18  1  0.18149200  0.42008800  0.59198400  1
  O  O19  1  0.20287500  0.68057500  0.98797200  1
  O  O20  1  0.71148800  0.42642700  0.73857200  1
  O  O21  1  0.28851200  0.57357300  0.26142800  1
  O  O22  1  0.81850800  0.57991200  0.40801600  1
  O  O23  1  0.41250400  0.73674600  0.44226500  1
loop_
_geom_bond_atom_site_label_1
_geom_bond_atom_site_label_2
_geom_bond_distance
_geom_bond_site_symmetry_2
Li0 O0 1.958708 1_555
Li0 O2 1.964873 1_555
Li0 O1 1.979273 1_655
Li0 O16 2.046238 1_555
Li1 O8 1.958708 1_555
Li1 O3 1.964873 1_555
Li1 O5 1.979273 1_455
Li1 O14 2.046238 1_555
Li2 O9 1.953238 1_555
Li2 O4 1.954036 1_555
Li2 O6 1.961244 1_555
Li2 O15 2.069124 1_565
Li3 O7 1.953238 1_555
Li3 O11 1.954036 1_555
Li3 O10 1.961244 1_555
Li3 O23 2.069124 1_545
Li4 O16 1.938003 1_555
Li4 O12 1.940162 1_555
Li4 O13 1.978312 1_555
Li4 O0 2.037104 1_555
Li5 O14 1.938003 1_555
Li5 O19 1.940162 1_555
Li5 O17 1.978312 1_555
Li5 O8 2.037104 1_555
Li6 O20 1.938020 1_555
Li6 O15 1.973807 1_555
Li6 O18 1.980766 1_655
Li6 O9 2.047116 1_545
Li7 O21 1.938020 1_555
Li7 O23 1.973807 1_555
Li7 O22 1.980766 1_455
Li7 O7 2.047116 1_565
Mn0 O21 2.071712 1_555
Mn0 O16 2.099762 1_555
Mn0 O22 2.119312 1_555
Mn0 O10 2.194671 1_555
Mn0 O2 2.491462 1_555
Mn1 O20 2.071712 1_555
Mn1 O14 2.099762 1_555
Mn1 O18 2.119312 1_555
Mn1 O6 2.194671 1_555
Mn1 O3 2.491462 1_555
Fe0 O3 1.995504 1_555
Fe0 O5 2.063169 1_555
Fe0 O9 2.079890 1_545
Fe0 O17 2.202100 1_545
Fe0 O20 2.477578 1_555
Fe1 O23 2.020061 1_555
Fe1 O4 2.031389 1_455
Fe1 O6 2.107659 1_555
Fe1 O18 2.225091 1_555
Fe1 O11 2.386871 1_565
Fe2 O2 1.995504 1_555
Fe2 O1 2.063169 1_555
Fe2 O7 2.079890 1_565
Fe2 O13 2.202100 1_565
Fe2 O21 2.477578 1_555
Fe3 O12 1.985796 1_455
Fe3 O13 2.063625 1_555
Fe3 O8 2.086056 1_554
Fe3 O1 2.191521 1_545
Fe3 O19 2.494651 1_554
Fe4 O15 2.020061 1_555
Fe4 O11 2.031389 1_655
Fe4 O10 2.107659 1_555
Fe4 O22 2.225091 1_555
Fe4 O4 2.386871 1_545
Fe5 O19 1.985796 1_655
Fe5 O17 2.063625 1_555
Fe5 O0 2.086056 1_556
Fe5 O5 2.191521 1_565
Fe5 O12 2.494651 1_556
B0 O0 1.376896 1_555
B0 O19 1.393096 1_554
B0 O1 1.403706 1_555
B1 O7 1.374633 1_655
B1 O2 1.396299 1_545
B1 O10 1.401252 1_555
B2 O8 1.376896 1_555
B2 O12 1.393096 1_556
B2 O5 1.403706 1_555
B3 O9 1.374633 1_455
B3 O3 1.396299 1_565
B3 O6 1.401252 1_555
B4 O14 1.379218 1_655
B4 O20 1.392564 1_555
B4 O17 1.407544 1_555
B5 O15 1.380751 1_555
B5 O11 1.396519 1_555
B5 O18 1.399245 1_555
B6 O16 1.379218 1_455
B6 O21 1.392564 1_555
B6 O13 1.407544 1_555
B7 O23 1.380751 1_555
B7 O4 1.396519 1_555
B7 O22 1.399245 1_555
