# generated using pymatgen
data_Ti9SnO20
_symmetry_space_group_name_H-M   'P 1'
_cell_length_a   7.59857912
_cell_length_b   7.59857912
_cell_length_c   7.25883794
_cell_angle_alpha   85.96741131
_cell_angle_beta   85.96741131
_cell_angle_gamma   51.56466035
_symmetry_Int_Tables_number   1
_chemical_formula_structural   Ti9SnO20
_chemical_formula_sum   'Ti9 Sn1 O20'
_cell_volume   327.29332162
_cell_formula_units_Z   1
loop_
 _symmetry_equiv_pos_site_id
 _symmetry_equiv_pos_as_xyz
  1  'x, y, z'
loop_
 _atom_site_type_symbol
 _atom_site_label
 _atom_site_symmetry_multiplicity
 _atom_site_fract_x
 _atom_site_fract_y
 _atom_site_fract_z
 _atom_site_occupancy
  Ti  Ti0  1  0.29765000  0.29765000  0.69815900  1
  Ti  Ti1  1  0.29560900  0.29560900  0.20416000  1
  Ti  Ti2  1  0.70235000  0.70235000  0.30184100  1
  Ti  Ti3  1  0.50000000  0.50000000  0.50000000  1
  Ti  Ti4  1  0.70439100  0.70439100  0.79584000  1
  Ti  Ti5  1  0.09898800  0.09898800  0.40237400  1
  Ti  Ti6  1  0.90101200  0.90101200  0.59762600  1
  Ti  Ti7  1  0.10024400  0.10024400  0.90208300  1
  Ti  Ti8  1  0.89975600  0.89975600  0.09791700  1
  Sn  Sn0  1  0.50000000  0.50000000  0.00000000  1
  O  O0  1  0.60669400  0.99554500  0.69902000  1
  O  O1  1  0.99554500  0.60669400  0.69902000  1
  O  O2  1  0.39330600  0.00445500  0.30098000  1
  O  O3  1  0.63893100  0.63893100  0.55631900  1
  O  O4  1  0.76002300  0.76002300  0.04690600  1
  O  O5  1  0.56271900  0.56271900  0.25022400  1
  O  O6  1  0.16166400  0.16166400  0.64059000  1
  O  O7  1  0.36106900  0.36106900  0.44368100  1
  O  O8  1  0.00445500  0.39330600  0.30098000  1
  O  O9  1  0.80599100  0.19400900  0.50000000  1
  O  O10  1  0.40460500  0.80709600  0.89366500  1
  O  O11  1  0.80709600  0.40460500  0.89366500  1
  O  O12  1  0.19400900  0.80599100  0.50000000  1
  O  O13  1  0.59539500  0.19290400  0.10633500  1
  O  O14  1  0.23997700  0.23997700  0.95309400  1
  O  O15  1  0.83833600  0.83833600  0.35941000  1
  O  O16  1  0.43728100  0.43728100  0.74977600  1
  O  O17  1  0.03894300  0.03894300  0.15474500  1
  O  O18  1  0.96105700  0.96105700  0.84525500  1
  O  O19  1  0.19290400  0.59539500  0.10633500  1
loop_
_geom_bond_atom_site_label_1
_geom_bond_atom_site_label_2
_geom_bond_distance
_geom_bond_site_symmetry_2
O0 Ti4 1.937100 1_555
O0 Ti6 1.976052 1_555
O0 Ti0 2.020444 1_565
O1 Ti4 1.937100 1_555
O1 Ti6 1.976052 1_555
O1 Ti0 2.020444 1_655
O2 Ti1 1.937100 1_555
O2 Ti5 1.976052 1_555
O2 Ti2 2.020444 1_545
O3 Ti3 1.975601 1_555
O3 Ti2 1.978626 1_555
O3 Ti4 2.017068 1_555
O4 Ti2 1.954280 1_555
O4 Ti8 1.975861 1_555
O4 Ti4 2.029182 1_554
O5 Ti3 1.944437 1_555
O5 Ti2 1.975651 1_555
O5 Sn0 2.068621 1_555
O6 Ti0 1.938802 1_555
O6 Ti5 1.989296 1_555
O6 Ti7 2.014982 1_555
O7 Ti3 1.975601 1_555
O7 Ti0 1.978626 1_555
O7 Ti1 2.017068 1_555
O8 Ti1 1.937100 1_555
O8 Ti5 1.976052 1_555
O8 Ti2 2.020444 1_455
O9 Ti5 1.957479 1_655
O9 Ti6 1.957479 1_545
O9 Ti3 2.022618 1_555
O10 Ti7 1.977033 1_565
O10 Ti4 1.985590 1_555
O10 Sn0 2.070948 1_556
O10 O14 2.752879 1_565
O10 O6 2.763809 1_565
O11 Ti7 1.977033 1_655
O11 Ti4 1.985590 1_555
O11 Sn0 2.070948 1_556
O11 O14 2.752879 1_655
O11 O6 2.763809 1_655
O12 Ti5 1.957479 1_565
O12 Ti6 1.957479 1_455
O12 Ti3 2.022618 1_555
O13 Ti8 1.977033 1_545
O13 Ti1 1.985590 1_555
O13 Sn0 2.070948 1_555
O13 O4 2.752879 1_545
O13 O15 2.763809 1_545
O14 Ti0 1.954280 1_555
O14 Ti7 1.975861 1_555
O14 Ti1 2.029182 1_556
O15 Ti2 1.938802 1_555
O15 Ti6 1.989296 1_555
O15 Ti8 2.014982 1_555
O15 O19 2.763809 1_655
O16 Ti3 1.944437 1_555
O16 Ti0 1.975651 1_555
O16 Sn0 2.068621 1_556
O17 Ti7 1.956287 1_554
O17 Ti8 1.980073 1_445
O17 Ti5 2.033924 1_555
O18 Ti8 1.956287 1_556
O18 Ti7 1.980073 1_665
O18 Ti6 2.033924 1_555
O19 Ti8 1.977033 1_455
O19 Ti1 1.985590 1_555
O19 Sn0 2.070948 1_555
O19 O4 2.752879 1_455
