# generated using pymatgen
data_Li7VO5F
_symmetry_space_group_name_H-M   'P 1'
_cell_length_a   5.26229499
_cell_length_b   10.51948212
_cell_length_c   9.58602622
_cell_angle_alpha   100.32654761
_cell_angle_beta   92.64332477
_cell_angle_gamma   102.54681712
_symmetry_Int_Tables_number   1
_chemical_formula_structural   Li7VO5F
_chemical_formula_sum   'Li28 V4 O20 F4'
_cell_volume   507.58433538
_cell_formula_units_Z   4
loop_
 _symmetry_equiv_pos_site_id
 _symmetry_equiv_pos_as_xyz
  1  'x, y, z'
loop_
 _atom_site_type_symbol
 _atom_site_label
 _atom_site_symmetry_multiplicity
 _atom_site_fract_x
 _atom_site_fract_y
 _atom_site_fract_z
 _atom_site_occupancy
  Li  Li0  1  0.73875800  0.69093400  0.79469200  1
  Li  Li1  1  0.48860500  0.19084100  0.04469300  1
  Li  Li2  1  0.98872100  0.19093900  0.54467000  1
  Li  Li3  1  0.23875800  0.69088100  0.29467100  1
  Li  Li4  1  0.57679800  0.81483000  0.65302000  1
  Li  Li5  1  0.32672800  0.31481700  0.90311000  1
  Li  Li6  1  0.82680000  0.31485400  0.40309400  1
  Li  Li7  1  0.07678300  0.81485000  0.15313000  1
  Li  Li8  1  0.75709500  0.50571800  0.57775400  1
  Li  Li9  1  0.50704000  0.00574900  0.82769000  1
  Li  Li10  1  0.00712700  0.00575000  0.32771800  1
  Li  Li11  1  0.25715000  0.50571600  0.07770500  1
  Li  Li12  1  0.96946400  0.99040600  0.68274200  1
  Li  Li13  1  0.71942900  0.49035800  0.93279400  1
  Li  Li14  1  0.21938600  0.49037000  0.43283200  1
  Li  Li15  1  0.46933200  0.99038000  0.18280000  1
  Li  Li16  1  0.64866800  0.68102300  0.44340200  1
  Li  Li17  1  0.39865200  0.18108300  0.69341400  1
  Li  Li18  1  0.89869900  0.18097000  0.19341600  1
  Li  Li19  1  0.14866500  0.68104600  0.94347600  1
  Li  Li20  1  0.14383900  0.68644600  0.61075800  1
  Li  Li21  1  0.89392400  0.18641200  0.86076100  1
  Li  Li22  1  0.39391200  0.18641200  0.36075100  1
  Li  Li23  1  0.64390600  0.68640500  0.11077800  1
  Li  Li24  1  0.04788600  0.82943300  0.45686700  1
  Li  Li25  1  0.79796200  0.32950600  0.70696100  1
  Li  Li26  1  0.29793000  0.32944200  0.20688100  1
  Li  Li27  1  0.54783800  0.82943000  0.95692800  1
  V  V0  1  0.27728500  0.50487800  0.73059000  1
  V  V1  1  0.52745900  0.00475400  0.48090200  1
  V  V2  1  0.02700000  0.00452100  0.98065600  1
  V  V3  1  0.77757500  0.50481300  0.23095200  1
  O  O0  1  0.78114000  0.88505100  0.82172100  1
  O  O1  1  0.53135300  0.38505100  0.07180500  1
  O  O2  1  0.03128100  0.38507600  0.57172200  1
  O  O3  1  0.28130100  0.88505200  0.32176500  1
  O  O4  1  0.47261800  0.61659300  0.61390200  1
  O  O5  1  0.22225200  0.11638800  0.86400800  1
  O  O6  1  0.72244600  0.11645100  0.36408600  1
  O  O7  1  0.97252600  0.61650100  0.11404600  1
  O  O8  1  0.00477000  0.59536200  0.75996000  1
  O  O9  1  0.75480800  0.09527500  0.00998100  1
  O  O10  1  0.25468300  0.09540500  0.51007900  1
  O  O11  1  0.50491500  0.59532400  0.26000900  1
  O  O12  1  0.72761600  0.88233900  0.49684400  1
  O  O13  1  0.47770800  0.38241200  0.74676100  1
  O  O14  1  0.97766600  0.38220400  0.24685500  1
  O  O15  1  0.22776000  0.88212400  0.99679200  1
  O  O16  1  0.97191300  0.62573500  0.42093800  1
  O  O17  1  0.72180500  0.12582700  0.67096100  1
  O  O18  1  0.22179100  0.12558700  0.17092400  1
  O  O19  1  0.47183400  0.62592300  0.92087000  1
  F  F0  1  0.26783400  0.87457700  0.63635100  1
  F  F1  1  0.01747900  0.37444600  0.88644500  1
  F  F2  1  0.51746000  0.37453900  0.38633400  1
  F  F3  1  0.76734800  0.87444400  0.13634900  1
loop_
_geom_bond_atom_site_label_1
_geom_bond_atom_site_label_2
_geom_bond_distance
_geom_bond_site_symmetry_2
Li0 O8 1.901470 1_655
Li0 O0 1.973270 1_555
Li0 O19 1.984842 1_555
Li0 O4 2.095437 1_555
Li0 Li4 2.297785 1_555
Li0 Li27 2.349115 1_555
Li0 Li19 2.562182 1_655
Li1 O9 1.902270 1_555
Li1 O1 1.973962 1_555
Li1 O18 1.985586 1_555
Li1 O5 2.095413 1_554
Li1 Li5 2.297639 1_554
Li1 Li26 2.348746 1_555
Li1 Li18 2.562629 1_555
Li2 O10 1.900827 1_655
Li2 O2 1.973354 1_655
Li2 O17 1.985896 1_555
Li2 O6 2.094512 1_555
Li2 Li6 2.297218 1_555
Li2 Li25 2.349358 1_555
Li3 O11 1.901945 1_555
Li3 O3 1.973694 1_555
Li3 O16 1.985595 1_455
Li3 O7 2.094582 1_455
Li3 Li7 2.297553 1_555
Li4 O0 1.839404 1_555
Li4 O12 1.903003 1_555
Li4 O4 1.998457 1_555
Li4 Li9 2.478563 1_565
Li5 O1 1.840056 1_556
Li5 O13 1.905151 1_555
Li5 O5 2.000439 1_555
Li6 O2 1.839194 1_655
Li6 O14 1.902916 1_555
Li6 O6 2.000165 1_555
Li6 Li8 2.477995 1_555
Li7 O3 1.839311 1_555
Li7 O15 1.903625 1_554
Li7 O7 1.999596 1_455
Li8 O8 2.074657 1_655
Li8 O4 2.093563 1_555
Li8 O2 2.114876 1_655
Li8 O16 2.312714 1_555
Li8 O13 2.571640 1_555
Li9 O9 2.075287 1_556
Li9 O5 2.093412 1_555
Li9 O0 2.114975 1_545
Li9 O17 2.312317 1_555
Li9 O15 2.573701 1_545
Li10 O10 2.075457 1_555
Li10 O6 2.093430 1_455
Li10 O3 2.115300 1_545
Li10 O18 2.311175 1_555
Li10 Li22 2.428785 1_555
Li10 Li24 2.447540 1_545
Li10 Li7 2.477806 1_545
Li10 Li18 2.573021 1_455
Li10 O12 2.573358 1_445
Li11 O11 2.075514 1_555
Li11 O7 2.093753 1_455
Li11 O1 2.115191 1_555
Li11 O19 2.313685 1_554
Li11 Li23 2.428829 1_555
Li11 Li26 2.447338 1_555
Li11 Li5 2.477689 1_554
Li11 Li19 2.573683 1_554
Li11 O14 2.573984 1_455
Li12 O0 2.039423 1_555
Li12 O12 2.126870 1_555
Li12 O17 2.142738 1_565
Li12 O5 2.177260 1_665
Li12 Li4 2.420962 1_555
Li12 O10 2.525181 1_665
Li13 O1 2.038860 1_556
Li13 O13 2.127175 1_555
Li13 O19 2.143905 1_555
Li13 O7 2.178455 1_556
Li13 Li5 2.420904 1_555
Li13 O8 2.526792 1_655
Li14 O2 2.037948 1_555
Li14 O14 2.127377 1_455
Li14 O16 2.141685 1_455
Li14 O4 2.177899 1_555
Li14 Li6 2.420315 1_455
Li14 O11 2.527012 1_555
Li15 O3 2.038548 1_555
Li15 O15 2.127486 1_554
Li15 O18 2.140588 1_565
Li15 O6 2.178457 1_565
Li15 Li7 2.420302 1_555
Li15 O9 2.526571 1_565
Li16 O11 1.867728 1_555
Li16 O16 1.922702 1_555
Li16 O12 2.032000 1_555
Li16 O4 2.062271 1_555
Li16 Li24 2.311955 1_655
Li16 Li4 2.334391 1_555
Li16 Li3 2.561826 1_555
Li16 Li8 2.574080 1_555
Li17 O10 1.867505 1_555
Li17 O17 1.922069 1_555
Li17 O13 2.032060 1_555
Li17 O5 2.064862 1_555
Li17 Li25 2.312303 1_555
Li17 Li5 2.334683 1_555
Li17 Li2 2.561976 1_455
Li17 Li9 2.573817 1_555
Li18 O9 1.868241 1_555
Li18 O18 1.922434 1_655
Li18 O14 2.031173 1_555
Li18 O6 2.064485 1_555
Li18 Li26 2.312312 1_655
Li18 Li6 2.335271 1_555
Li19 O8 1.868870 1_555
Li19 O19 1.921631 1_555
Li19 O15 2.029522 1_555
Li19 O7 2.063502 1_456
Li19 Li27 2.311661 1_555
Li19 Li7 2.334660 1_556
Li20 O16 1.928185 1_455
Li20 O8 1.944854 1_555
Li20 O4 2.022304 1_555
Li20 Li4 2.358137 1_555
Li20 Li24 2.398008 1_555
Li20 Li8 2.429056 1_455
Li21 O17 1.928300 1_555
Li21 O9 1.945377 1_556
Li21 O5 2.021122 1_655
Li21 Li5 2.357551 1_655
Li21 Li25 2.398279 1_555
Li21 Li9 2.429118 1_555
Li22 O18 1.928679 1_555
Li22 O10 1.945686 1_555
Li22 O6 2.021803 1_555
Li22 Li6 2.358048 1_555
Li22 Li26 2.398267 1_555
Li23 O19 1.929042 1_554
Li23 O11 1.944946 1_555
Li23 O7 2.021868 1_555
Li23 Li7 2.358012 1_655
Li23 Li27 2.398232 1_554
Li24 O3 1.906423 1_555
Li24 O12 1.920327 1_455
Li24 O16 2.054396 1_455
Li24 Li3 2.349097 1_555
Li25 O2 1.906971 1_655
Li25 O13 1.919928 1_555
Li25 O17 2.054145 1_555
Li25 Li8 2.447066 1_555
Li26 O1 1.906228 1_555
Li26 O14 1.919618 1_455
Li26 O18 2.055957 1_555
Li27 O0 1.906837 1_555
Li27 O15 1.918172 1_555
Li27 O19 2.052405 1_555
Li27 Li9 2.448149 1_565
O0 V2 1.999957 1_665
O1 V3 2.003201 1_555
O2 V0 2.001150 1_555
O3 V1 2.002759 1_565
O4 V0 1.934255 1_555
O5 V2 1.934754 1_555
O6 V1 1.934241 1_555
O7 V3 1.934719 1_555
O8 V0 1.891033 1_555
O9 V2 1.891330 1_654
O10 V1 1.893189 1_555
O11 V3 1.891604 1_555
O12 V1 1.853660 1_565
O13 V0 1.855506 1_555
O14 V3 1.855044 1_555
O15 V2 1.856110 1_565
O16 V3 2.100759 1_555
O17 V1 2.101835 1_555
O18 V2 2.104022 1_554
O19 V0 2.103629 1_555
F0 Li4 1.876164 1_555
F0 Li20 1.911194 1_555
F0 Li24 1.951921 1_555
F0 Li12 2.202044 1_455
F0 Li9 2.231090 1_565
F0 V1 2.463499 1_565
F1 Li5 1.876895 1_555
F1 Li21 1.909919 1_455
F1 Li25 1.950884 1_455
F1 Li13 2.201158 1_455
F1 Li11 2.231890 1_556
F1 V0 2.468240 1_555
F2 Li6 1.877756 1_555
F2 Li22 1.910903 1_555
F2 Li26 1.950604 1_555
F2 Li14 2.200886 1_555
F2 Li8 2.232533 1_555
F2 V3 2.464776 1_555
F3 Li7 1.877730 1_655
F3 Li23 1.909982 1_555
F3 Li27 1.950341 1_554
F3 Li15 2.201310 1_555
F3 Li10 2.232961 1_665
F3 V2 2.464701 1_664
