# generated using pymatgen
data_LiVCrP2(O4F)2
_symmetry_space_group_name_H-M   'P 1'
_cell_length_a   5.16460400
_cell_length_b   7.32919258
_cell_length_c   19.50791588
_cell_angle_alpha   93.70210854
_cell_angle_beta   89.55183935
_cell_angle_gamma   106.06609362
_symmetry_Int_Tables_number   1
_chemical_formula_structural   LiVCrP2(O4F)2
_chemical_formula_sum   'Li4 V4 Cr4 P8 O32 F8'
_cell_volume   708.06096238
_cell_formula_units_Z   4
loop_
 _symmetry_equiv_pos_site_id
 _symmetry_equiv_pos_as_xyz
  1  'x, y, z'
loop_
 _atom_site_type_symbol
 _atom_site_label
 _atom_site_symmetry_multiplicity
 _atom_site_fract_x
 _atom_site_fract_y
 _atom_site_fract_z
 _atom_site_occupancy
  Li  Li0  1  0.96636600  0.70921900  0.10916300  1
  Li  Li1  1  0.71651600  0.46015400  0.35855200  1
  Li  Li2  1  0.46792800  0.21158800  0.60824600  1
  Li  Li3  1  0.03105600  0.28886400  0.88970200  1
  V  V0  1  0.00012800  0.99979100  0.99969600  1
  V  V1  1  0.75035000  0.75559800  0.25112700  1
  V  V2  1  0.50074300  0.50570700  0.50104600  1
  V  V3  1  0.25063300  0.24987200  0.74958500  1
  Cr  Cr0  1  0.87029800  0.87200500  0.62528600  1
  Cr  Cr1  1  0.63123900  0.62871700  0.87390500  1
  Cr  Cr2  1  0.36973700  0.37195100  0.12515000  1
  Cr  Cr3  1  0.12161800  0.12283700  0.37522000  1
  P  P0  1  0.91076600  0.22844000  0.52835000  1
  P  P1  1  0.84466800  0.51998700  0.71988700  1
  P  P2  1  0.59012400  0.27454500  0.97222500  1
  P  P3  1  0.34392400  0.02290200  0.22083400  1
  P  P4  1  0.65628600  0.98063200  0.77986500  1
  P  P5  1  0.41068000  0.72590800  0.02752700  1
  P  P6  1  0.16014100  0.47835100  0.27838100  1
  P  P7  1  0.09384300  0.77278700  0.47080700  1
  O  O0  1  0.94501200  0.09893600  0.80503800  1
  O  O1  1  0.89092800  0.15199400  0.45364300  1
  O  O2  1  0.76805700  0.08297100  0.57985700  1
  O  O3  1  0.98831200  0.62709000  0.28652300  1
  O  O4  1  0.75564100  0.12125500  0.96588400  1
  O  O5  1  0.97193500  0.66904200  0.67000000  1
  O  O6  1  0.85198100  0.59483100  0.79488100  1
  O  O7  1  0.73881500  0.37717000  0.53648200  1
  O  O8  1  0.73374400  0.41574000  0.91974700  1
  O  O9  1  0.80464400  0.65236200  0.44655100  1
  O  O10  1  0.61131600  0.36041700  0.04589900  1
  O  O11  1  0.47705700  0.12467600  0.78489400  1
  O  O12  1  0.47234300  0.16759200  0.16929300  1
  O  O13  1  0.55567200  0.40136100  0.69526000  1
  O  O14  1  0.70806800  0.82392400  0.05092000  1
  O  O15  1  0.35344600  0.10636900  0.29446500  1
  O  O16  1  0.65017100  0.90583300  0.70529600  1
  O  O17  1  0.29243900  0.17618900  0.94945100  1
  O  O18  1  0.45742800  0.57434500  0.30163700  1
  O  O19  1  0.52874900  0.83128000  0.83022000  1
  O  O20  1  0.51682500  0.87365200  0.21728800  1
  O  O21  1  0.39064600  0.64076600  0.95417600  1
  O  O22  1  0.20802600  0.32438100  0.55160400  1
  O  O23  1  0.26678200  0.58414200  0.08033800  1
  O  O24  1  0.26690600  0.62353800  0.46721200  1
  O  O25  1  0.13938900  0.40123900  0.20370600  1
  O  O26  1  0.01778300  0.33316900  0.33000000  1
  O  O27  1  0.24403200  0.87836200  0.03461400  1
  O  O28  1  0.02312200  0.37531600  0.71548400  1
  O  O29  1  0.22266200  0.91782100  0.41946400  1
  O  O30  1  0.10225600  0.85547700  0.54454500  1
  O  O31  1  0.05465200  0.90228200  0.19662600  1
  F  F0  1  0.93749900  0.81985900  0.92089000  1
  F  F1  1  0.68529400  0.56998100  0.16884800  1
  F  F2  1  0.81435800  0.93267500  0.33013400  1
  F  F3  1  0.43727700  0.31987400  0.41860900  1
  F  F4  1  0.56300400  0.68255600  0.58027500  1
  F  F5  1  0.18769600  0.06773100  0.66795100  1
  F  F6  1  0.31517200  0.43257400  0.83183100  1
  F  F7  1  0.06440900  0.18021400  0.07917400  1
loop_
_geom_bond_atom_site_label_1
_geom_bond_atom_site_label_2
_geom_bond_distance
_geom_bond_site_symmetry_2
Li0 O23 2.066598 1_655
Li0 O31 2.112958 1_655
Li0 O14 2.131922 1_555
Li0 O27 2.219114 1_655
Li1 O26 2.078063 1_655
Li1 O9 2.117474 1_555
Li1 O18 2.118198 1_555
Li1 O3 2.163876 1_555
Li2 O2 2.079869 1_555
Li2 O13 2.092741 1_555
Li2 O22 2.112213 1_555
Li2 O7 2.153830 1_555
Li3 O0 2.057968 1_455
Li3 O8 2.066844 1_455
Li3 O17 2.151473 1_555
Li3 O4 2.230809 1_455
Cr0 O5 1.963705 1_555
Cr0 F4 1.965288 1_555
Cr0 O16 1.966826 1_555
Cr0 O30 1.989190 1_655
Cr0 F5 2.000818 1_665
Cr0 O2 2.022661 1_565
Cr1 O19 1.953442 1_555
Cr1 O6 1.953887 1_555
Cr1 F0 1.983659 1_555
Cr1 F6 1.993646 1_555
Cr1 O21 2.004075 1_555
Cr1 O8 2.040006 1_555
Cr2 O12 1.969454 1_555
Cr2 O25 1.969809 1_555
Cr2 F7 1.974505 1_555
Cr2 O10 1.991309 1_555
Cr2 F1 2.010470 1_555
Cr2 O23 2.026347 1_555
Cr3 F2 1.968155 1_445
Cr3 O1 1.968716 1_455
Cr3 O29 1.970695 1_545
Cr3 O15 1.988915 1_555
Cr3 F3 2.005072 1_555
Cr3 O26 2.020585 1_555
O0 P4 1.567593 1_545
O0 V3 2.011655 1_655
O1 P0 1.521014 1_555
O2 P0 1.543170 1_555
O3 P6 1.584945 1_655
O3 V1 1.900586 1_555
O4 P2 1.587526 1_555
O4 V0 1.879621 1_645
O5 P1 1.517376 1_555
O6 P1 1.525907 1_555
O7 P0 1.585352 1_555
O7 V2 1.901494 1_555
O8 P2 1.539220 1_555
O9 P7 1.568828 1_655
O9 V2 1.984087 1_555
O10 P2 1.523558 1_554
O11 P4 1.583382 1_545
O11 V3 1.836305 1_555
O12 P3 1.520977 1_555
O13 P1 1.566349 1_555
O13 V3 1.998861 1_555
O14 P5 1.562439 1_555
O14 V0 2.000450 1_654
O15 P3 1.520145 1_555
O16 P4 1.518486 1_555
O17 P2 1.560964 1_555
O17 V0 1.992868 1_545
O18 P6 1.558833 1_555
O18 V1 2.014364 1_555
O19 P4 1.525349 1_555
O20 P3 1.590177 1_565
O20 V1 1.817362 1_555
O21 P5 1.516220 1_556
O22 P0 1.558640 1_455
O22 V2 2.014518 1_555
O23 P5 1.546653 1_555
O24 P7 1.590795 1_555
O24 V2 1.817494 1_555
O25 P6 1.521719 1_555
O26 P6 1.542911 1_555
O27 P5 1.587087 1_555
O27 V0 1.885481 1_554
O28 P1 1.583977 1_455
O28 V3 1.832384 1_555
O29 P7 1.520323 1_555
O30 P7 1.520597 1_555
O31 P3 1.569274 1_565
O31 V1 1.985548 1_455
F0 V0 1.927960 1_655
F0 O27 2.677374 1_656
F1 Li0 1.952273 1_555
F1 V1 2.003351 1_555
F1 O20 2.718628 1_555
F1 O3 2.731965 1_555
F1 O10 2.733417 1_555
F2 V1 1.918678 1_555
F2 O20 2.637524 1_555
F3 Li1 1.953956 1_555
F3 V2 2.006742 1_555
F3 O24 2.724867 1_555
F3 O7 2.731018 1_555
F4 V2 1.921111 1_555
F4 O24 2.637017 1_555
F5 Li2 1.962267 1_555
F5 V3 1.979195 1_555
F5 O11 2.682736 1_555
F6 Li3 1.951722 1_555
F6 V3 1.990555 1_555
F6 O28 2.680081 1_555
F7 V0 1.939854 1_544
F7 O4 2.676642 1_454
F7 O27 2.717651 1_545
