# generated using pymatgen
data_Na4CuO3
_symmetry_space_group_name_H-M   'P 1'
_cell_length_a   6.31237053
_cell_length_b   6.31237053
_cell_length_c   8.12208793
_cell_angle_alpha   68.52509544
_cell_angle_beta   68.52509544
_cell_angle_gamma   53.96161329
_symmetry_Int_Tables_number   1
_chemical_formula_structural   Na4CuO3
_chemical_formula_sum   'Na8 Cu2 O6'
_cell_volume   238.59506856
_cell_formula_units_Z   2
loop_
 _symmetry_equiv_pos_site_id
 _symmetry_equiv_pos_as_xyz
  1  'x, y, z'
loop_
 _atom_site_type_symbol
 _atom_site_label
 _atom_site_symmetry_multiplicity
 _atom_site_fract_x
 _atom_site_fract_y
 _atom_site_fract_z
 _atom_site_occupancy
  Na  Na0  1  0.80489200  0.23419600  0.10088200  1
  Na  Na1  1  0.26349900  0.60804900  0.28951900  1
  Na  Na2  1  0.36911500  0.05853700  0.19518000  1
  Na  Na3  1  0.76983300  0.46201300  0.37981700  1
  Na  Na4  1  0.23419600  0.80489200  0.60088200  1
  Na  Na5  1  0.60804900  0.26349900  0.78951900  1
  Na  Na6  1  0.05853700  0.36911500  0.69518000  1
  Na  Na7  1  0.46201300  0.76983300  0.87981700  1
  Cu  Cu0  1  0.99175900  0.70047200  0.00247000  1
  Cu  Cu1  1  0.70047200  0.99175900  0.50247000  1
  O  O0  1  0.34757800  0.44634500  0.04528600  1
  O  O1  1  0.69020600  0.67624300  0.08497700  1
  O  O2  1  0.00465600  0.02436700  0.36001000  1
  O  O3  1  0.44634500  0.34757800  0.54528600  1
  O  O4  1  0.67624300  0.69020600  0.58497700  1
  O  O5  1  0.02436700  0.00465600  0.86001000  1
loop_
_geom_bond_atom_site_label_1
_geom_bond_atom_site_label_2
_geom_bond_distance
_geom_bond_site_symmetry_2
Na0 O5 2.361196 1_654
Na0 O2 2.389744 1_655
Na0 O1 2.398864 1_555
Na0 O0 2.508674 1_555
Na0 Na1 2.986583 1_555
Na0 Na6 3.135862 1_654
Na1 O2 2.295199 1_565
Na1 O0 2.309290 1_555
Na1 O3 2.317910 1_555
Na1 O1 2.786515 1_555
Na2 O0 2.245165 1_555
Na2 O1 2.287076 1_545
Na2 O2 2.291053 1_555
Na2 Na4 3.135862 1_545
Na3 O2 2.277586 1_655
Na3 O4 2.288202 1_555
Na3 O3 2.348001 1_555
Na3 O1 2.350840 1_555
Na4 O2 2.361196 1_565
Na4 O5 2.389744 1_565
Na4 O4 2.398864 1_555
Na4 O3 2.508674 1_555
Na4 Na5 2.986583 1_555
Na5 O5 2.295199 1_655
Na5 O3 2.309290 1_555
Na5 O0 2.317910 1_556
Na5 O4 2.786515 1_555
Na6 O3 2.245165 1_555
Na6 O4 2.287076 1_455
Na6 O5 2.291053 1_555
Na7 O5 2.277586 1_565
Na7 O1 2.288202 1_556
Na7 O0 2.348001 1_556
Na7 O4 2.350840 1_555
Cu0 O1 1.851855 1_555
Cu0 O0 1.913885 1_655
Cu0 O5 1.931839 1_664
Cu0 Na4 3.061586 1_654
Cu0 Na1 3.077827 1_655
Cu1 O4 1.851855 1_555
Cu1 O3 1.913885 1_565
Cu1 O2 1.931839 1_665
Cu1 Na0 3.061586 1_565
Cu1 Na5 3.077827 1_565
