# generated using pymatgen
data_LiMnP3HO10
_symmetry_space_group_name_H-M   'P 1'
_cell_length_a   7.30471263
_cell_length_b   7.30471263
_cell_length_c   9.44800838
_cell_angle_alpha   73.53205086
_cell_angle_beta   73.53205086
_cell_angle_gamma   67.44284439
_symmetry_Int_Tables_number   1
_chemical_formula_structural   LiMnP3HO10
_chemical_formula_sum   'Li2 Mn2 P6 H2 O20'
_cell_volume   437.69220992
_cell_formula_units_Z   2
loop_
 _symmetry_equiv_pos_site_id
 _symmetry_equiv_pos_as_xyz
  1  'x, y, z'
loop_
 _atom_site_type_symbol
 _atom_site_label
 _atom_site_symmetry_multiplicity
 _atom_site_fract_x
 _atom_site_fract_y
 _atom_site_fract_z
 _atom_site_occupancy
  Li  Li0  1  0.43439200  0.56560800  0.75000000  1
  Li  Li1  1  0.56560800  0.43439100  0.25000000  1
  Mn  Mn0  1  0.00000000  0.50000000  0.50000000  1
  Mn  Mn1  1  0.50000000  0.00000000  0.00000000  1
  P  P0  1  0.86122100  0.72310200  0.79428300  1
  P  P1  1  0.72310200  0.86122100  0.29428300  1
  P  P2  1  0.86274200  0.13725800  0.75000000  1
  P  P3  1  0.13725800  0.86274200  0.25000000  1
  P  P4  1  0.27689800  0.13877900  0.70571700  1
  P  P5  1  0.13877900  0.27689800  0.20571700  1
  H  H0  1  0.00000000  0.50000000  0.00000000  1
  H  H1  1  0.50000000  0.00000000  0.50000000  1
  O  O0  1  0.90118400  0.93054900  0.70012900  1
  O  O1  1  0.93054900  0.90118400  0.20012900  1
  O  O2  1  0.65336400  0.77229900  0.90077100  1
  O  O3  1  0.84768700  0.62537800  0.67741200  1
  O  O4  1  0.39280600  0.96160500  0.62179600  1
  O  O5  1  0.77229900  0.65336400  0.40077100  1
  O  O6  1  0.62537800  0.84768700  0.17741200  1
  O  O7  1  0.83235600  0.29760600  0.61010300  1
  O  O8  1  0.96160500  0.39280600  0.12179600  1
  O  O9  1  0.70239400  0.16764400  0.88989700  1
  O  O10  1  0.29760600  0.83235600  0.11010300  1
  O  O11  1  0.03839500  0.60719400  0.87820400  1
  O  O12  1  0.16764400  0.70239400  0.38989700  1
  O  O13  1  0.37462200  0.15231300  0.82258800  1
  O  O14  1  0.22770100  0.34663600  0.59922900  1
  O  O15  1  0.60719400  0.03839500  0.37820400  1
  O  O16  1  0.15231300  0.37462200  0.32258800  1
  O  O17  1  0.34663600  0.22770100  0.09922900  1
  O  O18  1  0.06945100  0.09881600  0.79987100  1
  O  O19  1  0.09881600  0.06945100  0.29987100  1
loop_
_geom_bond_atom_site_label_1
_geom_bond_atom_site_label_2
_geom_bond_distance
_geom_bond_site_symmetry_2
Li0 O4 2.734011 1_555
Li0 O11 2.734011 1_555
Li0 O9 2.992098 1_555
Li0 O7 2.992098 1_555
Li0 O3 3.072940 1_555
Li0 O13 3.072940 1_555
Li0 O2 3.351296 1_555
Li0 O14 3.351296 1_555
Li1 O15 2.734004 1_555
Li1 O8 2.734012 1_555
Li1 O12 2.992101 1_555
Li1 O10 2.992102 1_555
Li1 O16 3.072937 1_555
Li1 O6 3.072947 1_555
Li1 O17 3.351291 1_555
Li1 O5 3.351302 1_555
Mn0 O14 1.938955 1_555
Mn0 O5 1.938955 1_455
Mn0 O3 1.979275 1_455
Mn0 O16 1.979275 1_555
Mn0 O12 2.135961 1_555
Mn0 O7 2.135961 1_455
Mn1 O17 1.938955 1_555
Mn1 O2 1.938955 1_544
Mn1 O6 1.979275 1_545
Mn1 O13 1.979275 1_554
Mn1 O10 2.135961 1_545
Mn1 O9 2.135961 1_554
H0 O8 1.220907 1_455
H0 O11 1.220907 1_554
H1 O15 1.220907 1_555
H1 O4 1.220907 1_545
O0 P2 1.607441 1_565
O0 P0 1.612668 1_555
O1 P3 1.607441 1_655
O1 P1 1.612668 1_555
O2 P0 1.538509 1_555
O3 P0 1.517079 1_555
O4 P4 1.543045 1_565
O5 P1 1.538509 1_555
O6 P1 1.517079 1_555
O7 P2 1.502448 1_555
O8 P5 1.543045 1_655
O9 P2 1.502448 1_555
O10 P3 1.502448 1_555
O11 P0 1.543045 1_455
O12 P3 1.502448 1_555
O13 P4 1.517079 1_555
O14 P4 1.538509 1_555
O15 P1 1.543045 1_545
O16 P5 1.517079 1_555
O17 P5 1.538509 1_555
O18 P2 1.607441 1_455
O18 P4 1.612668 1_555
O19 P3 1.607441 1_545
O19 P5 1.612668 1_555
