# generated using pymatgen
data_Rb2Nb3Cl7O5
_symmetry_space_group_name_H-M   'P 1'
_cell_length_a   9.75144006
_cell_length_b   9.75144006
_cell_length_c   11.32404034
_cell_angle_alpha   71.34652800
_cell_angle_beta   71.34652800
_cell_angle_gamma   55.20745878
_symmetry_Int_Tables_number   1
_chemical_formula_structural   Rb2Nb3Cl7O5
_chemical_formula_sum   'Rb4 Nb6 Cl14 O10'
_cell_volume   824.69428014
_cell_formula_units_Z   2
loop_
 _symmetry_equiv_pos_site_id
 _symmetry_equiv_pos_as_xyz
  1  'x, y, z'
loop_
 _atom_site_type_symbol
 _atom_site_label
 _atom_site_symmetry_multiplicity
 _atom_site_fract_x
 _atom_site_fract_y
 _atom_site_fract_z
 _atom_site_occupancy
  Rb  Rb0  1  0.15837500  0.24510800  0.14083900  1
  Rb  Rb1  1  0.84072600  0.75211400  0.85883300  1
  Rb  Rb2  1  0.75627500  0.84369500  0.35467500  1
  Rb  Rb3  1  0.24188200  0.15713500  0.64528500  1
  Nb  Nb0  1  0.53519900  0.46200300  0.25442000  1
  Nb  Nb1  1  0.78083900  0.20876100  0.97573600  1
  Nb  Nb2  1  0.79357200  0.21733300  0.52607000  1
  Nb  Nb3  1  0.20521200  0.78814900  0.47761700  1
  Nb  Nb4  1  0.46524600  0.53942300  0.74649500  1
  Nb  Nb5  1  0.21275400  0.79678700  0.02391300  1
  Cl  Cl0  1  0.05742800  0.63834100  0.12560300  1
  Cl  Cl1  1  0.93983800  0.36454300  0.87341000  1
  Cl  Cl2  1  0.42653900  0.27624000  0.32842700  1
  Cl  Cl3  1  0.90946700  0.08922700  0.75388700  1
  Cl  Cl4  1  0.63841500  0.05415300  0.04664900  1
  Cl  Cl5  1  0.94923700  0.35793900  0.45857400  1
  Cl  Cl6  1  0.06283800  0.63488100  0.54188500  1
  Cl  Cl7  1  0.28274600  0.41713800  0.82870200  1
  Cl  Cl8  1  0.58425800  0.71750700  0.66786000  1
  Cl  Cl9  1  0.64507600  0.05839700  0.62691700  1
  Cl  Cl10  1  0.08815700  0.90803300  0.24846900  1
  Cl  Cl11  1  0.36126300  0.93316300  0.37380700  1
  Cl  Cl12  1  0.71889400  0.58001500  0.17288300  1
  Cl  Cl13  1  0.35727300  0.94797100  0.95993200  1
  O  O0  1  0.29213100  0.70554500  0.62140700  1
  O  O1  1  0.40299900  0.60376300  0.12148800  1
  O  O2  1  0.60608100  0.39038200  0.87396400  1
  O  O3  1  0.29146700  0.71573500  0.87493200  1
  O  O4  1  0.71165500  0.28517300  0.12535600  1
  O  O5  1  0.99491200  0.00550000  0.99863800  1
  O  O6  1  0.71523200  0.28718400  0.38332700  1
  O  O7  1  0.59804600  0.40143400  0.62825800  1
  O  O8  1  0.40024000  0.59607200  0.37200200  1
  O  O9  1  0.00523600  0.99426500  0.49968400  1
loop_
_geom_bond_atom_site_label_1
_geom_bond_atom_site_label_2
_geom_bond_distance
_geom_bond_site_symmetry_2
Nb0 O8 1.800881 1_555
Nb0 O1 1.927522 1_555
Nb0 O4 2.165080 1_555
Nb0 O6 2.179703 1_555
Nb1 O4 1.839492 1_556
Nb1 O5 1.910294 1_555
Nb1 O2 1.968572 1_555
Nb2 O6 1.775430 1_555
Nb2 O9 1.994652 1_645
Nb2 O7 2.051482 1_555
Nb3 O0 1.811969 1_555
Nb3 O9 1.855151 1_555
Nb3 O8 2.113838 1_555
Nb4 O7 1.826217 1_555
Nb4 O2 1.931377 1_555
Nb4 O0 2.102709 1_555
Nb4 O3 2.154305 1_555
Nb5 O3 1.841826 1_554
Nb5 O5 1.954239 1_464
Nb5 O1 2.049702 1_555
Cl0 Nb5 2.534627 1_555
Cl0 O5 3.167723 1_464
Cl0 O1 3.175597 1_555
Cl0 O3 3.207321 1_554
Cl0 Rb0 3.328745 1_555
Cl0 Rb2 3.331928 1_455
Cl0 Cl12 3.510747 1_455
Cl0 Cl10 3.528258 1_555
Cl0 Rb1 3.753176 1_454
Cl1 Nb1 2.543021 1_555
Cl1 O2 3.115785 1_555
Cl1 O5 3.118172 1_555
Cl1 O4 3.190909 1_556
Cl1 Rb1 3.283211 1_555
Cl1 Rb3 3.334054 1_655
Cl1 Cl7 3.522613 1_655
Cl1 Cl3 3.551852 1_555
Cl1 Rb0 3.756134 1_656
Cl2 Nb0 2.399530 1_555
Cl2 O4 3.013984 1_555
Cl2 O6 3.134955 1_555
Cl2 O8 3.166550 1_555
Cl2 O1 3.234877 1_555
Cl2 Rb2 3.542595 1_545
Cl2 Rb3 3.613002 1_555
Cl2 Rb0 4.039140 1_555
Cl3 Nb1 2.726212 1_555
Cl3 Nb2 2.772277 1_555
Cl3 O5 2.880243 1_555
Cl3 O9 3.002434 1_645
Cl3 O2 3.048226 1_555
Cl3 O7 3.155443 1_555
Cl3 Rb3 3.440501 1_655
Cl3 Rb1 3.489174 1_545
Cl3 Cl9 3.512425 1_555
Cl3 Cl4 3.577015 1_556
Cl3 Cl5 3.595059 1_555
Cl3 O3 3.689121 1_645
Cl3 O0 3.774924 1_645
Cl4 Nb1 2.397586 1_554
Cl4 O5 3.111191 1_554
Cl4 O2 3.128359 1_554
Cl4 O4 3.147568 1_555
Cl4 Rb1 3.432537 1_544
Cl4 Rb2 3.604581 1_545
Cl4 Rb0 3.827098 1_555
Cl5 Nb2 2.393946 1_555
Cl5 O6 3.134607 1_555
Cl5 O9 3.160378 1_645
Cl5 O7 3.202247 1_555
Cl5 Rb3 3.358950 1_655
Cl5 Rb0 3.686919 1_655
Cl5 Rb2 3.878375 1_555
Cl6 Nb3 2.390991 1_555
Cl6 O8 3.108868 1_555
Cl6 O9 3.111174 1_555
Cl6 O0 3.119038 1_555
Cl6 Rb2 3.452985 1_455
Cl6 Rb1 3.702180 1_455
Cl6 Rb3 3.828679 1_555
Cl7 Nb4 2.471358 1_555
Cl7 O0 3.059646 1_555
Cl7 O7 3.138417 1_555
Cl7 O3 3.169503 1_555
Cl7 O2 3.206476 1_555
Cl7 Rb0 3.544762 1_556
Cl7 Rb1 3.615194 1_455
Cl7 Rb3 3.994015 1_555
Cl8 Nb4 2.409394 1_555
Cl8 O3 3.065664 1_555
Cl8 O0 3.127652 1_555
Cl8 O7 3.176732 1_555
Cl8 O2 3.232447 1_555
Cl8 Rb2 3.558670 1_555
Cl8 Rb3 3.619574 1_565
Cl8 Rb1 3.991876 1_555
Cl9 Nb2 2.484796 1_555
Cl9 O9 3.103964 1_645
Cl9 O6 3.106812 1_555
Cl9 O7 3.110882 1_555
Cl9 Rb1 3.337980 1_545
Cl9 Rb3 3.422506 1_555
Cl9 Rb2 3.803016 1_545
Cl10 Nb5 2.720907 1_555
Cl10 Nb3 2.798991 1_555
Cl10 O5 2.945021 1_464
Cl10 O9 2.955745 1_555
Cl10 O1 3.131531 1_555
Cl10 O8 3.147768 1_555
Cl10 Rb2 3.414458 1_455
Cl10 Rb0 3.497204 1_565
Cl10 Cl11 3.542925 1_555
Cl10 Cl13 3.547071 1_554
Cl10 Cl6 3.572142 1_555
Cl10 O4 3.678817 1_465
Cl10 O6 3.733873 1_465
Cl11 Nb3 2.438291 1_555
Cl11 O9 3.075227 1_555
Cl11 O8 3.092291 1_555
Cl11 O0 3.124107 1_555
Cl11 Rb2 3.376007 1_555
Cl11 Rb0 3.385921 1_565
Cl11 Rb3 3.831487 1_565
Cl12 Nb0 2.449560 1_555
Cl12 O6 3.089215 1_555
Cl12 O4 3.131582 1_555
Cl12 O8 3.154827 1_555
Cl12 O1 3.182442 1_555
Cl12 Rb1 3.553874 1_554
Cl12 Rb0 3.599218 1_655
Cl12 Rb2 3.989717 1_555
Cl13 Nb5 2.391446 1_556
Cl13 O1 3.114121 1_556
Cl13 O5 3.145964 1_465
Cl13 O3 3.148777 1_555
Cl13 Rb0 3.346058 1_566
Cl13 Rb3 3.663120 1_565
Cl13 Rb1 3.854134 1_555
