# generated using pymatgen
data_Na8CoO6
_symmetry_space_group_name_H-M   'P 1'
_cell_length_a   6.25427664
_cell_length_b   6.25427709
_cell_length_c   12.52529541
_cell_angle_alpha   89.99999982
_cell_angle_beta   89.99999496
_cell_angle_gamma   120.00084407
_symmetry_Int_Tables_number   1
_chemical_formula_structural   Na8CoO6
_chemical_formula_sum   'Na16 Co2 O12'
_cell_volume   424.29617877
_cell_formula_units_Z   2
loop_
 _symmetry_equiv_pos_site_id
 _symmetry_equiv_pos_as_xyz
  1  'x, y, z'
loop_
 _atom_site_type_symbol
 _atom_site_label
 _atom_site_symmetry_multiplicity
 _atom_site_fract_x
 _atom_site_fract_y
 _atom_site_fract_z
 _atom_site_occupancy
  Na  Na0  1  -0.00003015  0.70376471  0.76997920  1
  Na  Na1  1  -0.00004541  0.61177902  0.12371366  1
  Na  Na2  1  0.00004328  0.38818438  0.62381297  1
  Na  Na3  1  0.00002976  0.29623805  0.26998462  1
  Na  Na4  1  0.33333374  0.66666625  0.41233751  1
  Na  Na5  1  0.33333438  0.66666755  0.91228831  1
  Na  Na6  1  0.29623239  0.29623242  0.76997881  1
  Na  Na7  1  0.38817890  0.38817920  0.12370598  1
  Na  Na8  1  0.61185428  0.61185426  0.62380480  1
  Na  Na9  1  0.29623798  0.00003018  0.26998463  1
  Na  Na10  1  0.70376470  0.70376482  0.26998410  1
  Na  Na11  1  0.38818430  0.00004320  0.62381300  1
  Na  Na12  1  0.66666734  0.33333454  0.91228843  1
  Na  Na13  1  0.66666611  0.33333328  0.41233798  1
  Na  Na14  1  0.61177832  0.99995445  0.12371341  1
  Na  Na15  1  0.70376467  0.99997002  0.76997921  1
  Co  Co0  1  -0.00000009  -0.00000007  0.99671168  1
  Co  Co1  1  0.00000177  0.00000139  0.49684022  1
  O  O0  1  -0.00000364  0.72585789  0.95185623  1
  O  O1  1  0.00000769  0.27413257  0.45194599  1
  O  O2  1  0.33332855  0.66666621  0.22127923  1
  O  O3  1  0.00000506  0.00000531  0.14460946  1
  O  O4  1  0.99999494  0.99999492  0.64475491  1
  O  O5  1  0.33333377  0.66667116  0.72130968  1
  O  O6  1  0.27414179  0.27414319  0.95185502  1
  O  O7  1  0.27413123  0.00000394  0.45194611  1
  O  O8  1  0.72587065  0.72587184  0.45194472  1
  O  O9  1  0.66667118  0.33333387  0.72130968  1
  O  O10  1  0.66666584  0.33332859  0.22127936  1
  O  O11  1  0.72585667  0.99999387  0.95185611  1
loop_
_geom_bond_atom_site_label_1
_geom_bond_atom_site_label_2
_geom_bond_distance
_geom_bond_site_symmetry_2
Na0 O0 2.282245 1_555
Na0 O9 2.292344 1_455
Na0 O5 2.292631 1_555
Na0 O4 2.427412 1_455
Na0 Na2 2.692256 1_555
Na0 Na12 2.839092 1_455
Na0 Na5 2.839330 1_555
Na0 Na8 2.859957 1_455
Na0 Na11 2.860304 1_565
Na1 O0 2.267687 1_554
Na1 O10 2.289335 1_455
Na1 O2 2.289702 1_555
Na1 O3 2.441983 1_565
Na1 Na3 2.692972 1_555
Na1 Na10 2.860914 1_455
Na1 Na9 2.861272 1_565
Na2 O1 2.267754 1_555
Na2 O5 2.288949 1_555
Na2 O9 2.289302 1_455
Na2 O4 2.441823 1_445
Na2 Na6 2.859961 1_555
Na3 O1 2.283305 1_555
Na3 O2 2.292455 1_555
Na3 O10 2.292740 1_455
Na3 O3 2.428647 1_555
Na3 Na4 2.839433 1_555
Na3 Na7 2.860907 1_555
Na4 O1 2.345446 1_555
Na4 O8 2.345490 1_555
Na4 O7 2.345529 1_565
Na4 O2 2.393061 1_555
Na4 Na9 2.839668 1_565
Na5 O11 2.345296 1_555
Na5 O6 2.345336 1_555
Na5 O0 2.345378 1_555
Na5 O5 2.392064 1_555
Na5 Na6 2.839190 1_555
Na6 O6 2.282239 1_555
Na6 O9 2.292492 1_555
Na6 O5 2.292492 1_555
Na6 O4 2.427486 1_445
Na6 Na8 2.692326 1_555
Na7 O6 2.267565 1_554
Na7 O2 2.289640 1_555
Na7 O10 2.289641 1_555
Na7 O3 2.441793 1_555
Na7 Na9 2.860907 1_555
Na8 O8 2.267635 1_555
Na8 O9 2.289246 1_555
Na8 O5 2.289247 1_555
Na8 O4 2.441650 1_555
Na9 O7 2.283306 1_555
Na9 O10 2.292452 1_555
Na9 O2 2.292741 1_545
Na9 O3 2.428647 1_555
Na10 O8 2.283300 1_555
Na10 O10 2.292602 1_555
Na10 O2 2.292602 1_555
Na10 O3 2.428720 1_665
Na10 Na7 2.693047 1_555
Na10 Na4 2.839522 1_555
Na10 Na13 2.839529 1_555
Na10 Na14 2.860917 1_555
Na11 O7 2.267751 1_555
Na11 O9 2.288949 1_555
Na11 O5 2.289302 1_545
Na11 O4 2.441822 1_445
Na11 Na15 2.692255 1_545
Na11 Na6 2.859961 1_555
Na12 O0 2.345306 1_655
Na12 O6 2.345346 1_555
Na12 O11 2.345390 1_545
Na12 O9 2.392065 1_555
Na12 Na6 2.839190 1_555
Na12 Na15 2.839332 1_545
Na13 O7 2.345457 1_555
Na13 O8 2.345501 1_555
Na13 O1 2.345545 1_655
Na13 O10 2.393066 1_555
Na13 Na9 2.839435 1_555
Na13 Na3 2.839668 1_655
Na14 O11 2.267687 1_554
Na14 O2 2.289332 1_555
Na14 O10 2.289705 1_565
Na14 O3 2.441985 1_665
Na14 Na9 2.692972 1_565
Na14 Na3 2.861275 1_665
Na15 O11 2.282244 1_555
Na15 O5 2.292345 1_555
Na15 O9 2.292631 1_565
Na15 O4 2.427413 1_555
Na15 Na5 2.839091 1_555
Na15 Na8 2.859958 1_555
Na15 Na2 2.860305 1_665
Co0 O6 1.804251 1_555
Co0 O0 1.804253 1_545
Co0 O11 1.804253 1_445
Co0 O3 1.852463 1_556
Co1 O8 1.804330 1_445
Co1 O7 1.804332 1_555
Co1 O1 1.804333 1_555
Co1 O4 1.852675 1_445
