# generated using pymatgen
data_TeP2H16N2O13
_symmetry_space_group_name_H-M   'P 1'
_cell_length_a   7.57170000
_cell_length_b   8.65712320
_cell_length_c   11.90574538
_cell_angle_alpha   104.05574607
_cell_angle_beta   90.65142217
_cell_angle_gamma   114.70809563
_symmetry_Int_Tables_number   1
_chemical_formula_structural   TeP2H16N2O13
_chemical_formula_sum   'Te2 P4 H32 N4 O26'
_cell_volume   682.07168158
_cell_formula_units_Z   2
loop_
 _symmetry_equiv_pos_site_id
 _symmetry_equiv_pos_as_xyz
  1  'x, y, z'
loop_
 _atom_site_type_symbol
 _atom_site_label
 _atom_site_symmetry_multiplicity
 _atom_site_fract_x
 _atom_site_fract_y
 _atom_site_fract_z
 _atom_site_occupancy
  Te  Te0  1  0.81879300  0.21591800  0.83319400  1
  Te  Te1  1  0.18120700  0.78408200  0.16680600  1
  P  P0  1  0.95933400  0.70234800  0.59339900  1
  P  P1  1  0.04066600  0.29765200  0.40660100  1
  P  P2  1  0.27981600  0.58391500  0.61076500  1
  P  P3  1  0.72018400  0.41608500  0.38923500  1
  H  H0  1  0.94336000  0.98862000  0.74216600  1
  H  H1  1  0.05664000  0.01138000  0.25783400  1
  H  H2  1  0.08063900  0.65658100  0.95327700  1
  H  H3  1  0.91936100  0.34341900  0.04672300  1
  H  H4  1  0.55511100  0.91173300  0.74501200  1
  H  H5  1  0.44488900  0.08826700  0.25498800  1
  H  H6  1  0.12319600  0.45273700  0.79230300  1
  H  H7  1  0.87680400  0.54726300  0.20769700  1
  H  H8  1  0.82367600  0.20685400  0.61734100  1
  H  H9  1  0.17632400  0.79314600  0.38265900  1
  H  H10  1  0.65985800  0.42788300  0.85839600  1
  H  H11  1  0.34014200  0.57211700  0.14160400  1
  H  H12  1  0.51542700  0.55664700  0.78253000  1
  H  H13  1  0.48457300  0.44335300  0.21747000  1
  H  H14  1  0.74331900  0.65520400  0.78024300  1
  H  H15  1  0.25668100  0.34479600  0.21975700  1
  H  H16  1  0.31036500  0.25633100  0.62243400  1
  H  H17  1  0.68963500  0.74366900  0.37756600  1
  H  H18  1  0.59681600  0.81204200  0.49934700  1
  H  H19  1  0.40318400  0.18795800  0.50065300  1
  H  H20  1  0.47771500  0.17234500  0.62691500  1
  H  H21  1  0.52228500  0.82765500  0.37308500  1
  H  H22  1  0.24133600  0.03480600  0.56274500  1
  H  H23  1  0.75866400  0.96519400  0.43725500  1
  H  H24  1  0.25698200  0.01814600  0.96746200  1
  H  H25  1  0.74301800  0.98185400  0.03253800  1
  H  H26  1  0.72159900  0.77651200  0.96993100  1
  H  H27  1  0.27840100  0.22348800  0.03006900  1
  H  H28  1  0.41883400  0.19674600  0.92712900  1
  H  H29  1  0.58116600  0.80325400  0.07287100  1
  H  H30  1  0.17374300  0.12168500  0.88842500  1
  H  H31  1  0.82625700  0.87831500  0.11157500  1
  N  N0  1  0.64444400  0.83750600  0.42094700  1
  N  N1  1  0.35555600  0.16249400  0.57905300  1
  N  N2  1  0.72025100  0.86267500  0.04736300  1
  N  N3  1  0.27974900  0.13732500  0.95263700  1
  O  O0  1  0.00573000  0.12152200  0.77642800  1
  O  O1  1  0.99427000  0.87847800  0.22357200  1
  O  O2  1  0.89555300  0.22613300  0.99286500  1
  O  O3  1  0.10444700  0.77386700  0.00713500  1
  O  O4  1  0.61061500  0.98671100  0.82730800  1
  O  O5  1  0.38938500  0.01328900  0.17269200  1
  O  O6  1  0.96959900  0.54776800  0.14848900  1
  O  O7  1  0.03040100  0.45223200  0.85151100  1
  O  O8  1  0.72462600  0.19436400  0.67294300  1
  O  O9  1  0.27537400  0.80563600  0.32705700  1
  O  O10  1  0.64476000  0.32295800  0.88923900  1
  O  O11  1  0.35524000  0.67704200  0.11076100  1
  O  O12  1  0.92517900  0.40345100  0.37166900  1
  O  O13  1  0.07482100  0.59654900  0.62833100  1
  O  O14  1  0.75831100  0.53602900  0.52304900  1
  O  O15  1  0.24168900  0.46397100  0.47695100  1
  O  O16  1  0.90131100  0.78415400  0.70440000  1
  O  O17  1  0.09868900  0.21584600  0.29560000  1
  O  O18  1  0.06448700  0.81460600  0.51556700  1
  O  O19  1  0.93551300  0.18539400  0.48443300  1
  O  O20  1  0.55401600  0.24126100  0.38354400  1
  O  O21  1  0.44598400  0.75873900  0.61645600  1
  O  O22  1  0.70647200  0.52125400  0.30745500  1
  O  O23  1  0.29352800  0.47874600  0.69254500  1
  O  O24  1  0.64419800  0.59076100  0.82701400  1
  O  O25  1  0.35580200  0.40923900  0.17298600  1
loop_
_geom_bond_atom_site_label_1
_geom_bond_atom_site_label_2
_geom_bond_distance
_geom_bond_site_symmetry_2
H0 O0 1.013212 1_665
H0 O16 1.604920 1_555
H1 O1 1.013212 1_445
H1 O17 1.604920 1_555
H2 O3 1.001361 1_556
H3 O2 1.001361 1_554
H4 O4 1.005790 1_555
H4 O21 1.688569 1_555
H5 O5 1.005790 1_555
H5 O20 1.688569 1_555
H6 O7 1.000392 1_555
H6 O23 1.745453 1_555
H7 O6 1.000392 1_555
H7 O22 1.745453 1_555
H8 O8 0.995310 1_555
H8 O19 1.809603 1_555
H9 O9 0.995310 1_555
H9 O18 1.809603 1_555
H10 O10 1.024290 1_555
H11 O11 1.024290 1_555
H12 O24 0.994951 1_555
H12 O23 1.756805 1_555
H13 O25 0.994951 1_555
H13 O22 1.756805 1_555
H14 O24 0.997474 1_555
H14 O16 1.700114 1_555
H15 O25 0.997474 1_555
H15 O17 1.700114 1_555
H16 N1 1.037478 1_555
H16 O23 1.961481 1_555
H17 N0 1.037478 1_555
H17 O22 1.961481 1_555
H18 N0 1.044530 1_555
H18 O21 1.835583 1_555
H19 N1 1.044530 1_555
H19 O20 1.835583 1_555
H20 N1 1.042106 1_555
H21 N0 1.042106 1_555
H22 N1 1.048952 1_555
H22 O18 1.752526 1_545
H23 N0 1.048952 1_555
H23 O19 1.752526 1_565
H24 N3 1.032391 1_555
H25 N2 1.032391 1_555
H26 N2 1.038721 1_556
H27 N3 1.038721 1_554
H28 N3 1.046977 1_555
H29 N2 1.046977 1_555
H30 N3 1.044958 1_555
H31 N2 1.044958 1_555
O0 Te0 1.961755 1_455
O1 Te1 1.961755 1_655
O2 Te0 1.951840 1_555
O3 Te1 1.951840 1_555
O4 Te0 1.934436 1_565
O5 Te1 1.934436 1_545
O6 Te1 1.958341 1_655
O7 Te0 1.958341 1_455
O8 Te0 1.966780 1_555
O9 Te1 1.966780 1_555
O10 Te0 1.944427 1_555
O11 Te1 1.944427 1_555
O12 P3 1.613412 1_555
O12 P1 1.619508 1_655
O13 P2 1.613412 1_555
O13 P0 1.619508 1_455
O14 P3 1.623299 1_555
O14 P0 1.626199 1_555
O15 P2 1.623299 1_555
O15 P1 1.626199 1_555
O16 P0 1.503250 1_555
O17 P1 1.503250 1_555
O18 P0 1.498129 1_455
O19 P1 1.498129 1_655
O20 P3 1.494838 1_555
O21 P2 1.494838 1_555
O22 P3 1.514935 1_555
O23 P2 1.514935 1_555
