# generated using pymatgen
data_CdRe2(H2O5)2
_symmetry_space_group_name_H-M   'P 1'
_cell_length_a   7.83331200
_cell_length_b   9.21987478
_cell_length_c   14.26982297
_cell_angle_alpha   106.19719956
_cell_angle_beta   87.48946993
_cell_angle_gamma   108.43228014
_symmetry_Int_Tables_number   1
_chemical_formula_structural   CdRe2(H2O5)2
_chemical_formula_sum   'Cd4 Re8 H16 O40'
_cell_volume   937.80172406
_cell_formula_units_Z   4
loop_
 _symmetry_equiv_pos_site_id
 _symmetry_equiv_pos_as_xyz
  1  'x, y, z'
loop_
 _atom_site_type_symbol
 _atom_site_label
 _atom_site_symmetry_multiplicity
 _atom_site_fract_x
 _atom_site_fract_y
 _atom_site_fract_z
 _atom_site_occupancy
  Cd  Cd0  1  0.25152800  0.76971800  0.34500100  1
  Cd  Cd1  1  0.74847200  0.23028200  0.65499900  1
  Cd  Cd2  1  0.23614200  0.36643100  0.15125800  1
  Cd  Cd3  1  0.76385800  0.63356900  0.84874200  1
  Re  Re0  1  0.74202700  0.63574500  0.41254100  1
  Re  Re1  1  0.25797300  0.36425500  0.58745900  1
  Re  Re2  1  0.71699100  0.86380200  0.62165400  1
  Re  Re3  1  0.28300900  0.13619800  0.37834600  1
  Re  Re4  1  0.75900500  0.09317000  0.05086000  1
  Re  Re5  1  0.24099500  0.90683000  0.94914000  1
  Re  Re6  1  0.75495900  0.59043300  0.11141000  1
  Re  Re7  1  0.24504100  0.40956700  0.88859000  1
  H  H0  1  0.18116800  0.45663200  0.36594300  1
  H  H1  1  0.81883200  0.54336800  0.63405700  1
  H  H2  1  0.99389200  0.42363800  0.31438000  1
  H  H3  1  0.00610800  0.57636200  0.68562000  1
  H  H4  1  0.29287800  0.70490600  0.12867400  1
  H  H5  1  0.70712200  0.29509400  0.87132600  1
  H  H6  1  0.47660900  0.72743600  0.18171200  1
  H  H7  1  0.52339100  0.27256400  0.81828800  1
  H  H8  1  0.23691700  0.93459200  0.21055000  1
  H  H9  1  0.76308300  0.06540800  0.78945000  1
  H  H10  1  0.95929100  0.05046700  0.30988400  1
  H  H11  1  0.04070900  0.94953300  0.69011600  1
  H  H12  1  0.48549600  0.36558200  0.28787900  1
  H  H13  1  0.51450400  0.63441800  0.71212100  1
  H  H14  1  0.46816100  0.20516000  0.20594200  1
  H  H15  1  0.53183900  0.79484000  0.79405800  1
  O  O0  1  0.95064400  0.75495600  0.38830300  1
  O  O1  1  0.04935600  0.24504400  0.61169700  1
  O  O2  1  0.74685100  0.90094900  0.50415000  1
  O  O3  1  0.25314900  0.09905100  0.49585000  1
  O  O4  1  0.67980000  0.63842600  0.54248500  1
  O  O5  1  0.32020000  0.36157400  0.45751500  1
  O  O6  1  0.57082300  0.62868600  0.33566500  1
  O  O7  1  0.42917700  0.37131400  0.66433500  1
  O  O8  1  0.34183300  0.71854200  0.46214100  1
  O  O9  1  0.65816700  0.28145800  0.53785900  1
  O  O10  1  0.51967600  0.91067400  0.65396500  1
  O  O11  1  0.48032400  0.08932600  0.34603500  1
  O  O12  1  0.23862700  0.55482000  0.63100400  1
  O  O13  1  0.76137300  0.44518000  0.36899600  1
  O  O14  1  0.95298500  0.85397800  0.64817800  1
  O  O15  1  0.04701500  0.14602200  0.35182200  1
  O  O16  1  0.95140300  0.18258800  0.13173400  1
  O  O17  1  0.04859700  0.81741200  0.86826600  1
  O  O18  1  0.75717700  0.90369400  0.98086300  1
  O  O19  1  0.24282300  0.09630600  0.01913700  1
  O  O20  1  0.76443300  0.21130500  0.97295000  1
  O  O21  1  0.23556700  0.78869500  0.02705000  1
  O  O22  1  0.56591600  0.07899300  0.11998600  1
  O  O23  1  0.43408400  0.92100700  0.88001400  1
  O  O24  1  0.54703700  0.43880300  0.10599200  1
  O  O25  1  0.45296300  0.56119700  0.89400800  1
  O  O26  1  0.82523800  0.59626800  0.99283300  1
  O  O27  1  0.17476200  0.40373200  0.00716700  1
  O  O28  1  0.91946100  0.55891900  0.17423000  1
  O  O29  1  0.08053900  0.44108100  0.82577000  1
  O  O30  1  0.72314400  0.77208000  0.17229700  1
  O  O31  1  0.27685600  0.22792000  0.82770300  1
  O  O32  1  0.12527400  0.46066700  0.30639800  1
  O  O33  1  0.87472600  0.53933300  0.69360200  1
  O  O34  1  0.34416100  0.67734400  0.18100500  1
  O  O35  1  0.65583900  0.32265600  0.81899500  1
  O  O36  1  0.16661400  0.92553300  0.26852300  1
  O  O37  1  0.83338600  0.07446700  0.73147700  1
  O  O38  1  0.39525000  0.26912600  0.24749200  1
  O  O39  1  0.60475000  0.73087400  0.75250800  1
loop_
_geom_bond_atom_site_label_1
_geom_bond_atom_site_label_2
_geom_bond_distance
_geom_bond_site_symmetry_2
Cd0 O8 2.066840 1_555
Cd0 O36 2.289050 1_555
Cd0 O0 2.381571 1_455
Cd0 O34 2.420435 1_555
Cd0 O32 2.605899 1_555
Cd1 O9 2.066840 1_555
Cd1 O37 2.289050 1_555
Cd1 O1 2.381571 1_655
Cd1 O35 2.420435 1_555
Cd1 O33 2.605899 1_555
Cd2 O27 2.272200 1_555
Cd2 O16 2.307773 1_455
Cd2 O32 2.376082 1_555
Cd2 O38 2.405900 1_555
Cd2 O24 2.422475 1_555
Cd2 O34 2.632909 1_555
Cd2 O19 2.685920 1_555
Cd3 O26 2.272200 1_555
Cd3 O17 2.307773 1_655
Cd3 O33 2.376082 1_555
Cd3 O39 2.405900 1_555
Cd3 O25 2.422475 1_555
Cd3 O35 2.632909 1_555
Cd3 O18 2.685920 1_555
H0 O32 0.987722 1_555
H0 O5 2.242521 1_555
H0 O8 2.383207 1_555
H1 O33 0.987722 1_555
H1 O4 2.242521 1_555
H1 O9 2.383207 1_555
H2 O32 0.988904 1_655
H2 O13 1.995588 1_555
H3 O33 0.988904 1_455
H3 O12 1.995588 1_555
H4 O34 0.990098 1_555
H4 O21 1.950033 1_555
H5 O35 0.990098 1_555
H5 O20 1.950033 1_555
H6 O34 0.992537 1_555
H6 O30 1.849974 1_555
H7 O35 0.992537 1_555
H7 O31 1.849974 1_555
H8 O36 0.981921 1_555
H9 O37 0.981921 1_555
H10 O15 0.982632 1_655
H11 O14 0.982632 1_455
H12 O38 0.987403 1_555
H12 O6 2.210875 1_555
H12 O13 2.300179 1_555
H13 O39 0.987403 1_555
H13 O7 2.210875 1_555
H13 O12 2.300179 1_555
H14 O38 1.006881 1_555
H14 O22 1.768895 1_555
H15 O39 1.006881 1_555
H15 O23 1.768895 1_555
O0 Re0 1.739228 1_555
O1 Re1 1.739228 1_555
O2 Re2 1.794130 1_555
O2 Re0 2.419034 1_555
O3 Re3 1.794130 1_555
O3 Re1 2.419034 1_555
O4 Re0 1.891937 1_555
O4 Re2 2.003837 1_555
O5 Re1 1.891937 1_555
O5 Re3 2.003837 1_555
O6 Re0 1.743575 1_555
O6 O8 2.642560 1_555
O7 Re1 1.743575 1_555
O7 O9 2.642560 1_555
O10 Re2 1.742731 1_555
O11 Re3 1.742731 1_555
O12 Re1 1.745601 1_555
O13 Re0 1.745601 1_555
O14 Re2 1.937819 1_555
O14 O4 2.593238 1_555
O15 Re3 1.937819 1_555
O15 O5 2.593238 1_555
O16 Re4 1.766006 1_555
O17 Re5 1.766006 1_555
O18 Re4 1.749764 1_566
O19 Re5 1.749764 1_544
O20 Re4 1.751082 1_556
O21 Re5 1.751082 1_554
O22 Re4 1.758989 1_555
O23 Re5 1.758989 1_555
O24 Re6 1.767480 1_555
O25 Re7 1.767480 1_555
O26 Re6 1.766217 1_556
O27 Re7 1.766217 1_554
O28 Re6 1.741194 1_555
O29 Re7 1.741194 1_555
O30 Re6 1.747859 1_555
O31 Re7 1.747859 1_555
O36 Re3 2.089733 1_565
O37 Re2 2.089733 1_545
