# generated using pymatgen
data_Ba3Y2F12
_symmetry_space_group_name_H-M   'P 1'
_cell_length_a   10.42315300
_cell_length_b   10.76766500
_cell_length_c   15.07725754
_cell_angle_alpha   45.82383151
_cell_angle_beta   90.00000000
_cell_angle_gamma   90.00000000
_symmetry_Int_Tables_number   1
_chemical_formula_structural   Ba3Y2F12
_chemical_formula_sum   'Ba12 Y8 F48'
_cell_volume   1213.62244370
_cell_formula_units_Z   4
loop_
 _symmetry_equiv_pos_site_id
 _symmetry_equiv_pos_as_xyz
  1  'x, y, z'
loop_
 _atom_site_type_symbol
 _atom_site_label
 _atom_site_symmetry_multiplicity
 _atom_site_fract_x
 _atom_site_fract_y
 _atom_site_fract_z
 _atom_site_occupancy
  Ba  Ba0  1  0.21617700  0.23001100  0.79806300  1
  Ba  Ba1  1  0.61540300  0.35393100  0.67163900  1
  Ba  Ba2  1  0.98968900  0.67161400  0.52118100  1
  Ba  Ba3  1  0.48968900  0.32838600  0.97881900  1
  Ba  Ba4  1  0.11540300  0.64606900  0.82836100  1
  Ba  Ba5  1  0.71617700  0.76998900  0.70193700  1
  Ba  Ba6  1  0.28382300  0.23001100  0.29806300  1
  Ba  Ba7  1  0.88459700  0.35393100  0.17163900  1
  Ba  Ba8  1  0.51031100  0.67161400  0.02118100  1
  Ba  Ba9  1  0.01031100  0.32838600  0.47881900  1
  Ba  Ba10  1  0.38459700  0.64606900  0.32836100  1
  Ba  Ba11  1  0.78382300  0.76998900  0.20193700  1
  Y  Y0  1  0.85345800  0.26131800  0.92596700  1
  Y  Y1  1  0.15791400  0.04008500  0.15761500  1
  Y  Y2  1  0.35345800  0.73868200  0.57403300  1
  Y  Y3  1  0.65791400  0.95991500  0.34238500  1
  Y  Y4  1  0.34208600  0.04008500  0.65761500  1
  Y  Y5  1  0.64654200  0.26131800  0.42596700  1
  Y  Y6  1  0.84208600  0.95991500  0.84238500  1
  Y  Y7  1  0.14654200  0.73868200  0.07403300  1
  F  F0  1  0.76829500  0.09874400  0.89764100  1
  F  F1  1  0.14663600  0.43239000  0.56640500  1
  F  F2  1  0.44758900  0.28200300  0.82904300  1
  F  F3  1  0.43061000  0.59839200  0.53077400  1
  F  F4  1  0.11786200  0.77515200  0.32048200  1
  F  F5  1  0.60129000  0.79509800  0.31653700  1
  F  F6  1  0.97731000  0.03908800  0.07486200  1
  F  F7  1  0.98092800  0.36047100  0.77760900  1
  F  F8  1  0.70742800  0.11297300  0.07104000  1
  F  F9  1  0.35932500  0.01569200  0.20197700  1
  F  F10  1  0.21291900  0.27325700  0.96488900  1
  F  F11  1  0.70210800  0.43753100  0.80449900  1
  F  F12  1  0.20210800  0.56246900  0.69550100  1
  F  F13  1  0.71291900  0.72674300  0.53511100  1
  F  F14  1  0.85932500  0.98430800  0.29802300  1
  F  F15  1  0.20742800  0.88702700  0.42896000  1
  F  F16  1  0.48092800  0.63952900  0.72239100  1
  F  F17  1  0.47731000  0.96091200  0.42513800  1
  F  F18  1  0.10129000  0.20490200  0.18346300  1
  F  F19  1  0.93061000  0.40160800  0.96922600  1
  F  F20  1  0.61786200  0.22484800  0.17951800  1
  F  F21  1  0.94758900  0.71799700  0.67095700  1
  F  F22  1  0.64663600  0.56761000  0.93359500  1
  F  F23  1  0.26829500  0.90125600  0.60235900  1
  F  F24  1  0.73170500  0.09874400  0.39764100  1
  F  F25  1  0.35336400  0.43239000  0.06640500  1
  F  F26  1  0.05241100  0.28200300  0.32904300  1
  F  F27  1  0.38213800  0.77515200  0.82048200  1
  F  F28  1  0.06939000  0.59839200  0.03077400  1
  F  F29  1  0.89871000  0.79509800  0.81653700  1
  F  F30  1  0.52269000  0.03908800  0.57486200  1
  F  F31  1  0.51907200  0.36047100  0.27760900  1
  F  F32  1  0.79257200  0.11297300  0.57104000  1
  F  F33  1  0.14067500  0.01569200  0.70197700  1
  F  F34  1  0.28708100  0.27325700  0.46488900  1
  F  F35  1  0.79789200  0.43753100  0.30449900  1
  F  F36  1  0.29789200  0.56246900  0.19550100  1
  F  F37  1  0.78708100  0.72674300  0.03511100  1
  F  F38  1  0.64067500  0.98430800  0.79802300  1
  F  F39  1  0.29257200  0.88702700  0.92896000  1
  F  F40  1  0.01907200  0.63952900  0.22239100  1
  F  F41  1  0.02269000  0.96091200  0.92513800  1
  F  F42  1  0.39871000  0.20490200  0.68346300  1
  F  F43  1  0.88213800  0.22484800  0.67951800  1
  F  F44  1  0.56939000  0.40160800  0.46922600  1
  F  F45  1  0.55241100  0.71799700  0.17095700  1
  F  F46  1  0.85336400  0.56761000  0.43359500  1
  F  F47  1  0.23170500  0.90125600  0.10235900  1
loop_
_geom_bond_atom_site_label_1
_geom_bond_atom_site_label_2
_geom_bond_distance
_geom_bond_site_symmetry_2
Ba0 F2 2.591137 1_555
Ba0 F1 2.620197 1_555
Ba0 F42 2.707292 1_555
Ba0 F7 2.734434 1_455
Ba0 F12 2.740887 1_555
Ba0 F39 2.830166 1_545
Ba0 F10 2.859553 1_555
Ba0 F41 2.897685 1_545
Ba0 F47 3.312238 1_546
Ba1 F2 2.594185 1_555
Ba1 F42 2.703608 1_555
Ba1 F3 2.712531 1_555
Ba1 F44 2.761098 1_555
Ba1 F11 2.855331 1_555
Ba1 F0 2.941312 1_555
Ba1 F38 2.995101 1_545
Ba1 F43 3.073352 1_555
Ba1 F13 3.141375 1_555
Ba1 F46 3.580202 1_555
Ba2 F46 2.660490 1_555
Ba2 F21 2.667098 1_555
Ba2 F1 2.707082 1_655
Ba2 F4 2.735415 1_655
Ba2 F15 2.822973 1_655
Ba2 F7 2.850875 1_555
Ba2 F14 2.952033 1_555
Ba2 F12 2.980954 1_655
Ba2 F13 2.982014 1_555
Ba3 F25 2.660490 1_556
Ba3 F2 2.667098 1_555
Ba3 F22 2.707082 1_555
Ba3 F20 2.735415 1_556
Ba3 F8 2.822973 1_556
Ba3 F16 2.850875 1_555
Ba3 F9 2.952033 1_556
Ba3 F11 2.980954 1_555
Ba3 F10 2.982014 1_555
Ba4 F21 2.594185 1_455
Ba4 F29 2.703608 1_455
Ba4 F19 2.712531 1_455
Ba4 F28 2.761098 1_556
Ba4 F12 2.855331 1_555
Ba4 F23 2.941312 1_555
Ba4 F33 2.995101 1_565
Ba4 F27 3.073352 1_555
Ba4 F10 3.141375 1_555
Ba4 F25 3.580202 1_556
Ba5 F21 2.591137 1_555
Ba5 F22 2.620197 1_555
Ba5 F29 2.707292 1_555
Ba5 F16 2.734434 1_555
Ba5 F11 2.740887 1_555
Ba5 F32 2.830166 1_565
Ba5 F13 2.859553 1_555
Ba5 F30 2.897685 1_565
Ba5 F24 3.312238 1_565
Ba6 F26 2.591137 1_555
Ba6 F25 2.620197 1_555
Ba6 F18 2.707292 1_555
Ba6 F31 2.734434 1_555
Ba6 F36 2.740887 1_555
Ba6 F15 2.830166 1_545
Ba6 F34 2.859553 1_555
Ba6 F17 2.897685 1_545
Ba6 F23 3.312238 1_545
Ba7 F26 2.594185 1_655
Ba7 F18 2.703608 1_655
Ba7 F28 2.712531 1_655
Ba7 F19 2.761098 1_554
Ba7 F35 2.855331 1_555
Ba7 F24 2.941312 1_555
Ba7 F14 2.995101 1_545
Ba7 F20 3.073352 1_555
Ba7 F37 3.141375 1_555
Ba7 F22 3.580202 1_554
Ba8 F22 2.660490 1_554
Ba8 F45 2.667098 1_555
Ba8 F25 2.707082 1_555
Ba8 F27 2.735415 1_554
Ba8 F39 2.822973 1_554
Ba8 F31 2.850875 1_555
Ba8 F38 2.952033 1_554
Ba8 F36 2.980954 1_555
Ba8 F37 2.982014 1_555
Ba9 F1 2.660490 1_555
Ba9 F26 2.667098 1_555
Ba9 F46 2.707082 1_455
Ba9 F43 2.735415 1_455
Ba9 F32 2.822973 1_455
Ba9 F40 2.850875 1_555
Ba9 F33 2.952033 1_555
Ba9 F35 2.980954 1_455
Ba9 F34 2.982014 1_555
Ba10 F45 2.594185 1_555
Ba10 F5 2.703608 1_555
Ba10 F44 2.712531 1_555
Ba10 F3 2.761098 1_555
Ba10 F36 2.855331 1_555
Ba10 F47 2.941312 1_555
Ba10 F9 2.995101 1_565
Ba10 F4 3.073352 1_555
Ba10 F34 3.141375 1_555
Ba10 F1 3.580202 1_555
Ba11 F45 2.591137 1_555
Ba11 F46 2.620197 1_555
Ba11 F5 2.707292 1_555
Ba11 F40 2.734434 1_655
Ba11 F35 2.740887 1_555
Ba11 F8 2.830166 1_565
Ba11 F37 2.859553 1_555
Ba11 F6 2.897685 1_565
Ba11 F0 3.312238 1_564
F0 Y0 2.253160 1_555
F0 Y6 2.292595 1_545
F0 F8 2.796289 1_556
F0 F43 2.800629 1_555
F0 F38 2.850107 1_545
F0 F41 2.923686 1_645
F0 F11 2.935234 1_555
F0 F37 2.967805 1_546
F0 F7 3.003506 1_555
F1 F4 2.896001 1_555
F1 F12 3.143930 1_555
F1 F42 3.161161 1_555
F1 F43 3.192380 1_455
F1 F7 3.207219 1_455
F1 F3 3.302468 1_555
F1 F34 3.328204 1_555
F1 F33 3.395805 1_555
F2 F42 2.882066 1_555
F2 F3 3.241667 1_555
F3 Y2 2.174204 1_555
F3 F5 2.923932 1_555
F4 Y1 2.139843 1_565
F4 F47 2.800629 1_555
F4 F40 2.896602 1_555
F4 F6 3.044466 1_465
F4 F46 3.192380 1_455
F5 Y3 2.147953 1_555
F5 F8 2.997064 1_565
F5 F9 3.044332 1_565
F6 Y0 2.223777 1_554
F6 Y1 2.262560 1_655
F6 F8 2.912979 1_555
F7 Y0 2.140124 1_555
F8 Y0 2.187015 1_554
F9 Y1 2.163036 1_555
F10 Y1 2.215366 1_556
F10 F12 2.928958 1_555
F10 F47 2.967805 1_546
F10 F9 2.996855 1_556
F10 F6 3.051388 1_456
F10 F18 3.061900 1_556
F10 F2 3.149289 1_555
F10 F25 3.328204 1_556
F11 Y0 2.144696 1_555
F11 F16 2.797394 1_555
F11 F13 2.928958 1_555
F11 F8 2.965167 1_556
F11 F2 3.019200 1_555
F11 F22 3.143930 1_555
F11 F21 3.353562 1_555
F12 Y2 2.144696 1_555
F12 F7 2.797394 1_455
F12 F23 2.935234 1_555
F12 F15 2.965167 1_555
F12 F21 3.019200 1_455
F12 F2 3.353562 1_555
F13 Y3 2.215366 1_555
F13 F24 2.967805 1_565
F13 F14 2.996855 1_555
F13 F17 3.051388 1_555
F13 F5 3.061900 1_555
F13 F21 3.149289 1_555
F13 F46 3.328204 1_555
F14 Y3 2.163036 1_555
F14 F24 2.850107 1_565
F14 F18 3.044332 1_665
F14 F46 3.395805 1_555
F15 Y2 2.187015 1_555
F15 F4 2.782748 1_555
F15 F23 2.796289 1_555
F15 F17 2.912979 1_555
F15 F18 2.997064 1_565
F16 Y2 2.140124 1_555
F16 F27 2.896602 1_555
F16 F2 2.983123 1_555
F16 F23 3.003506 1_555
F16 F22 3.207219 1_555
F17 Y2 2.223777 1_555
F17 Y3 2.262560 1_555
F17 F24 2.923686 1_565
F17 F30 2.945628 1_565
F17 F20 3.044466 1_565
F17 F3 3.057109 1_555
F18 Y1 2.147953 1_555
F18 F26 2.882066 1_555
F18 F19 2.923932 1_454
F18 F25 3.161161 1_555
F19 Y0 2.174204 1_555
F19 F6 3.057109 1_556
F19 F21 3.241667 1_555
F19 F22 3.302468 1_555
F20 Y3 2.139843 1_545
F20 F8 2.782748 1_555
F20 F24 2.800629 1_555
F20 F22 2.896001 1_554
F20 F31 2.896602 1_555
F20 F25 3.192380 1_555
F21 F29 2.882066 1_555
F21 F7 2.983123 1_555
F22 F29 3.161161 1_555
F22 F27 3.192380 1_555
F22 F37 3.328204 1_556
F22 F38 3.395805 1_555
F23 Y2 2.253160 1_555
F23 Y4 2.292595 1_565
F23 F27 2.800629 1_555
F23 F33 2.850107 1_565
F23 F30 2.923686 1_565
F23 F34 2.967805 1_565
F24 Y5 2.253160 1_555
F24 Y3 2.292595 1_545
F24 F32 2.796289 1_555
F24 F35 2.935234 1_555
F24 F31 3.003506 1_555
F25 F27 2.896001 1_554
F25 F36 3.143930 1_555
F25 F31 3.207219 1_555
F25 F28 3.302468 1_555
F25 F9 3.395805 1_555
F26 F40 2.983123 1_555
F26 F35 3.019200 1_455
F26 F34 3.149289 1_555
F26 F28 3.241667 1_555
F26 F36 3.353562 1_555
F27 Y4 2.139843 1_565
F27 F39 2.782748 1_555
F27 F30 3.044466 1_565
F28 Y7 2.174204 1_555
F28 F29 2.923932 1_454
F28 F41 3.057109 1_554
F29 Y6 2.147953 1_555
F29 F32 2.997064 1_565
F29 F33 3.044332 1_665
F29 F37 3.061900 1_556
F30 Y5 2.223777 1_555
F30 Y4 2.262560 1_555
F30 F32 2.912979 1_555
F30 F34 3.051388 1_555
F30 F44 3.057109 1_555
F31 Y5 2.140124 1_555
F31 F36 2.797394 1_555
F31 F45 2.983123 1_555
F32 Y5 2.187015 1_555
F32 F43 2.782748 1_555
F32 F35 2.965167 1_555
F33 Y4 2.163036 1_555
F33 F34 2.996855 1_555
F34 Y4 2.215366 1_555
F34 F36 2.928958 1_555
F34 F42 3.061900 1_555
F35 Y5 2.144696 1_555
F35 F40 2.797394 1_655
F35 F37 2.928958 1_555
F35 F46 3.143930 1_555
F35 F45 3.353562 1_555
F36 Y7 2.144696 1_555
F36 F47 2.935234 1_555
F36 F39 2.965167 1_554
F36 F45 3.019200 1_555
F37 Y6 2.215366 1_554
F37 F38 2.996855 1_554
F37 F41 3.051388 1_654
F37 F45 3.149289 1_555
F38 Y6 2.163036 1_555
F38 F42 3.044332 1_565
F39 Y7 2.187015 1_556
F39 F47 2.796289 1_556
F39 F41 2.912979 1_555
F39 F42 2.997064 1_565
F40 Y7 2.140124 1_555
F40 F47 3.003506 1_555
F40 F46 3.207219 1_455
F41 Y7 2.223777 1_556
F41 Y6 2.262560 1_455
F41 F6 2.945628 1_466
F41 F43 3.044466 1_465
F42 Y4 2.147953 1_555
F42 F44 2.923932 1_555
F43 Y6 2.139843 1_545
F43 F46 2.896001 1_555
F43 F7 2.896602 1_555
F44 Y5 2.174204 1_555
F44 F45 3.241667 1_555
F44 F46 3.302468 1_555
F45 F5 2.882066 1_555
F46 F5 3.161161 1_555
F47 Y7 2.253160 1_555
F47 Y1 2.292595 1_565
F47 F9 2.850107 1_565
F47 F6 2.923686 1_465
