# generated using pymatgen
data_K2B4H8O11
_symmetry_space_group_name_H-M   'P 1'
_cell_length_a   6.95675200
_cell_length_b   11.78642200
_cell_length_c   13.06382900
_cell_angle_alpha   90.00000000
_cell_angle_beta   90.00000000
_cell_angle_gamma   90.00000000
_symmetry_Int_Tables_number   1
_chemical_formula_structural   K2B4H8O11
_chemical_formula_sum   'K8 B16 H32 O44'
_cell_volume   1071.17146524
_cell_formula_units_Z   4
loop_
 _symmetry_equiv_pos_site_id
 _symmetry_equiv_pos_as_xyz
  1  'x, y, z'
loop_
 _atom_site_type_symbol
 _atom_site_label
 _atom_site_symmetry_multiplicity
 _atom_site_fract_x
 _atom_site_fract_y
 _atom_site_fract_z
 _atom_site_occupancy
  K  K0  1  0.03100000  0.07734600  0.61591800  1
  K  K1  1  0.28500700  0.65327900  0.53882300  1
  K  K2  1  0.78500700  0.84672100  0.46117700  1
  K  K3  1  0.53100000  0.42265400  0.38408200  1
  K  K4  1  0.46900000  0.92265400  0.11591800  1
  K  K5  1  0.21499300  0.34672100  0.03882300  1
  K  K6  1  0.71499300  0.15327900  0.96117700  1
  K  K7  1  0.96900000  0.57734600  0.88408200  1
  B  B0  1  0.63657800  0.83552300  0.70795100  1
  B  B1  1  0.59998700  0.04335600  0.70048000  1
  B  B2  1  0.53694500  0.43240200  0.65522500  1
  B  B3  1  0.21809900  0.34811500  0.61832200  1
  B  B4  1  0.71809900  0.15188500  0.38167800  1
  B  B5  1  0.03694500  0.06759800  0.34477500  1
  B  B6  1  0.09998700  0.45664400  0.29952000  1
  B  B7  1  0.13657800  0.66447700  0.29204900  1
  B  B8  1  0.86342200  0.16447700  0.20795100  1
  B  B9  1  0.90001300  0.95664400  0.20048000  1
  B  B10  1  0.96305500  0.56759800  0.15522500  1
  B  B11  1  0.28190100  0.65188500  0.11832200  1
  B  B12  1  0.78190100  0.84811500  0.88167800  1
  B  B13  1  0.46305500  0.93240200  0.84477500  1
  B  B14  1  0.40001300  0.54335600  0.79952000  1
  B  B15  1  0.36342200  0.33552300  0.79204900  1
  H  H0  1  0.02270300  0.83158700  0.70296400  1
  H  H1  1  0.59542700  0.21727100  0.68424700  1
  H  H2  1  0.24716300  0.84604400  0.69504400  1
  H  H3  1  0.59932800  0.67437500  0.66003300  1
  H  H4  1  0.89347100  0.53018300  0.64420400  1
  H  H5  1  0.91558700  0.65916700  0.66058900  1
  H  H6  1  0.78580900  0.37545700  0.58433700  1
  H  H7  1  0.59980600  0.16356700  0.52078500  1
  H  H8  1  0.09980600  0.33643300  0.47921500  1
  H  H9  1  0.28580900  0.12454300  0.41566300  1
  H  H10  1  0.41558700  0.84083300  0.33941100  1
  H  H11  1  0.39347100  0.96981700  0.35579600  1
  H  H12  1  0.09932800  0.82562500  0.33996700  1
  H  H13  1  0.74716300  0.65395600  0.30495600  1
  H  H14  1  0.09542700  0.28272900  0.31575300  1
  H  H15  1  0.52270300  0.66841300  0.29703600  1
  H  H16  1  0.47729700  0.16841300  0.20296400  1
  H  H17  1  0.25283700  0.15395600  0.19504400  1
  H  H18  1  0.90457300  0.78272900  0.18424700  1
  H  H19  1  0.90067200  0.32562500  0.16003300  1
  H  H20  1  0.60652900  0.46981700  0.14420400  1
  H  H21  1  0.58441300  0.34083300  0.16058900  1
  H  H22  1  0.71419100  0.62454300  0.08433700  1
  H  H23  1  0.90019400  0.83643300  0.02078500  1
  H  H24  1  0.40019400  0.66356700  0.97921500  1
  H  H25  1  0.21419100  0.87545700  0.91566300  1
  H  H26  1  0.08441300  0.15916700  0.83941100  1
  H  H27  1  0.10652900  0.03018300  0.85579600  1
  H  H28  1  0.40067200  0.17437500  0.83996700  1
  H  H29  1  0.40457300  0.71727100  0.81575300  1
  H  H30  1  0.75283700  0.34604400  0.80495600  1
  H  H31  1  0.97729700  0.33158700  0.79703600  1
  O  O0  1  0.54566500  0.34049200  0.73189500  1
  O  O1  1  0.20099400  0.31187200  0.71837600  1
  O  O2  1  0.50227900  0.54383000  0.70903200  1
  O  O3  1  0.98830500  0.58834000  0.66778200  1
  O  O4  1  0.67158600  0.94647300  0.65659700  1
  O  O5  1  0.63575000  0.14431400  0.64878500  1
  O  O6  1  0.12692500  0.84462300  0.65296500  1
  O  O7  1  0.63128100  0.74859600  0.62904800  1
  O  O8  1  0.71393500  0.44561100  0.59603100  1
  O  O9  1  0.37117500  0.41173200  0.58408400  1
  O  O10  1  0.07441200  0.31356500  0.55157500  1
  O  O11  1  0.57441200  0.18643500  0.44842500  1
  O  O12  1  0.87117500  0.08826800  0.41591600  1
  O  O13  1  0.21393500  0.05438900  0.40396900  1
  O  O14  1  0.13128100  0.75140400  0.37095200  1
  O  O15  1  0.62692500  0.65537700  0.34703500  1
  O  O16  1  0.13575000  0.35568600  0.35121500  1
  O  O17  1  0.17158600  0.55352700  0.34340300  1
  O  O18  1  0.48830500  0.91166000  0.33221800  1
  O  O19  1  0.00227900  0.95617000  0.29096800  1
  O  O20  1  0.70099400  0.18812800  0.28162400  1
  O  O21  1  0.04566500  0.15950800  0.26810500  1
  O  O22  1  0.95433500  0.65950800  0.23189500  1
  O  O23  1  0.29900600  0.68812800  0.21837600  1
  O  O24  1  0.99772100  0.45617000  0.20903200  1
  O  O25  1  0.51169500  0.41166000  0.16778200  1
  O  O26  1  0.82841400  0.05352700  0.15659700  1
  O  O27  1  0.86425000  0.85568600  0.14878500  1
  O  O28  1  0.37307500  0.15537700  0.15296500  1
  O  O29  1  0.86871900  0.25140400  0.12904800  1
  O  O30  1  0.78606500  0.55438900  0.09603100  1
  O  O31  1  0.12882500  0.58826800  0.08408400  1
  O  O32  1  0.42558800  0.68643500  0.05157500  1
  O  O33  1  0.92558800  0.81356500  0.94842500  1
  O  O34  1  0.62882500  0.91173200  0.91591600  1
  O  O35  1  0.28606500  0.94561100  0.90396900  1
  O  O36  1  0.36871900  0.24859600  0.87095200  1
  O  O37  1  0.87307500  0.34462300  0.84703500  1
  O  O38  1  0.36425000  0.64431400  0.85121500  1
  O  O39  1  0.32841400  0.44647300  0.84340300  1
  O  O40  1  0.01169500  0.08834000  0.83221800  1
  O  O41  1  0.49772100  0.04383000  0.79096800  1
  O  O42  1  0.79900600  0.81187200  0.78162400  1
  O  O43  1  0.45433500  0.84049200  0.76810500  1
loop_
_geom_bond_atom_site_label_1
_geom_bond_atom_site_label_2
_geom_bond_distance
_geom_bond_site_symmetry_2
K0 O40 2.831862 1_555
K0 O12 2.842445 1_455
K0 O6 2.864166 1_545
K0 O5 2.892746 1_455
K0 O10 2.923936 1_555
K0 O4 2.985559 1_445
K0 O13 3.059318 1_555
K0 O1 3.291056 1_555
K1 O14 2.700129 1_555
K1 O3 2.772089 1_455
K1 O7 2.907650 1_555
K1 O6 2.918749 1_555
K1 O17 2.919310 1_555
K1 O9 2.968875 1_555
K1 O2 2.982130 1_555
K1 O15 3.454850 1_555
K2 O7 2.700129 1_555
K2 O18 2.772089 1_555
K2 O14 2.907650 1_655
K2 O15 2.918749 1_555
K2 O4 2.919310 1_555
K2 O12 2.968875 1_565
K2 O19 2.982130 1_655
K2 O6 3.454850 1_655
K3 O25 2.831862 1_555
K3 O9 2.842445 1_555
K3 O15 2.864166 1_555
K3 O16 2.892746 1_555
K3 O11 2.923936 1_555
K3 O17 2.985559 1_555
K3 O8 3.059318 1_555
K3 O20 3.291056 1_555
K4 O18 2.831862 1_555
K4 O34 2.842445 1_554
K4 O28 2.864166 1_565
K4 O27 2.892746 1_555
K4 O32 2.923936 1_555
K4 O26 2.985559 1_565
K4 O35 3.059318 1_554
K4 O23 3.291056 1_555
K5 O36 2.700129 1_554
K5 O25 2.772089 1_555
K5 O29 2.907650 1_455
K5 O28 2.918749 1_555
K5 O39 2.919310 1_554
K5 O31 2.968875 1_555
K5 O24 2.982130 1_455
K5 O37 3.454850 1_454
K6 O29 2.700129 1_556
K6 O40 2.772089 1_655
K6 O36 2.907650 1_555
K6 O37 2.918749 1_555
K6 O26 2.919310 1_556
K6 O34 2.968875 1_545
K6 O41 2.982130 1_555
K6 O28 3.454850 1_556
K7 O3 2.831862 1_555
K7 O31 2.842445 1_656
K7 O37 2.864166 1_555
K7 O38 2.892746 1_655
K7 O33 2.923936 1_555
K7 O39 2.985559 1_655
K7 O30 3.059318 1_556
K7 O42 3.291056 1_555
B0 O7 1.453814 1_555
B0 O4 1.489792 1_555
B0 O43 1.492764 1_555
B0 O42 1.510250 1_555
B1 O4 1.371384 1_545
B1 O41 1.379704 1_555
B1 O5 1.390654 1_555
B2 O8 1.462283 1_555
B2 O0 1.476620 1_555
B2 O9 1.501002 1_555
B2 O2 1.509013 1_555
B3 O9 1.377070 1_555
B3 O1 1.380260 1_555
B3 O10 1.387571 1_555
B4 O12 1.377070 1_555
B4 O20 1.380260 1_555
B4 O11 1.387571 1_555
B5 O13 1.462283 1_555
B5 O21 1.476620 1_555
B5 O12 1.501002 1_455
B5 O19 1.509013 1_545
B6 O17 1.371384 1_555
B6 O24 1.379704 1_455
B6 O16 1.390654 1_555
B7 O14 1.453814 1_555
B7 O17 1.489792 1_555
B7 O22 1.492764 1_455
B7 O23 1.510250 1_555
B8 O29 1.453814 1_555
B8 O26 1.489792 1_555
B8 O21 1.492764 1_655
B8 O20 1.510250 1_555
B9 O26 1.371384 1_565
B9 O19 1.379704 1_655
B9 O27 1.390654 1_555
B10 O30 1.462283 1_555
B10 O22 1.476620 1_555
B10 O31 1.501002 1_655
B10 O24 1.509013 1_555
B11 O31 1.377070 1_555
B11 O23 1.380260 1_555
B11 O32 1.387571 1_555
B12 O34 1.377070 1_555
B12 O42 1.380260 1_555
B12 O33 1.387571 1_555
B13 O35 1.462283 1_555
B13 O43 1.476620 1_555
B13 O34 1.501002 1_555
B13 O41 1.509013 1_565
B14 O39 1.371384 1_555
B14 O2 1.379704 1_555
B14 O38 1.390654 1_555
B15 O36 1.453814 1_555
B15 O39 1.489792 1_555
B15 O0 1.492764 1_555
B15 O1 1.510250 1_555
H0 O6 0.987898 1_555
H0 O42 1.879290 1_455
H1 O5 1.016238 1_555
H1 O0 1.617585 1_555
H2 O6 1.001069 1_555
H2 O43 1.729871 1_555
H2 K1 3.065352 1_555
H3 O7 0.989210 1_555
H3 O2 1.798065 1_555
H3 K1 2.711207 1_555
H4 O3 0.999994 1_555
H5 O3 0.980628 1_555
H5 K7 3.097191 1_555
H6 O8 0.978291 1_555
H6 K3 3.208688 1_555
H7 O11 0.998722 1_555
H8 O10 0.998722 1_555
H9 O13 0.978291 1_555
H9 K0 3.208688 1_555
H10 O18 0.980628 1_555
H10 K4 3.097191 1_555
H11 O18 0.999994 1_555
H12 O14 0.989210 1_555
H12 O19 1.798065 1_555
H12 K2 2.711207 1_455
H13 O15 1.001069 1_555
H13 O22 1.729871 1_555
H13 K2 3.065352 1_555
H14 O16 1.016238 1_555
H14 O21 1.617585 1_555
H15 O15 0.987898 1_555
H15 O23 1.879290 1_555
H16 O28 0.987898 1_555
H16 O20 1.879290 1_555
H17 O28 1.001069 1_555
H17 O21 1.729871 1_555
H17 K5 3.065352 1_555
H18 O27 1.016238 1_555
H18 O22 1.617585 1_555
H19 O29 0.989210 1_555
H19 O24 1.798065 1_555
H19 K5 2.711207 1_655
H20 O25 0.999994 1_555
H21 O25 0.980628 1_555
H21 K3 3.097191 1_555
H22 O30 0.978291 1_555
H22 K7 3.208688 1_554
H23 O33 0.998722 1_554
H24 O32 0.998722 1_556
H25 O35 0.978291 1_555
H25 K4 3.208688 1_556
H26 O40 0.980628 1_555
H26 K0 3.097191 1_555
H27 O40 0.999994 1_555
H28 O36 0.989210 1_555
H28 O41 1.798065 1_555
H28 K6 2.711207 1_555
H29 O38 1.016238 1_555
H29 O43 1.617585 1_555
H30 O37 1.001069 1_555
H30 O0 1.729871 1_555
H30 K6 3.065352 1_555
H31 O37 0.987898 1_555
H31 O1 1.879290 1_655
