# generated using pymatgen
data_CsErO2
_symmetry_space_group_name_H-M   'P 1'
_cell_length_a   6.98860954
_cell_length_b   6.98861349
_cell_length_c   27.25698718
_cell_angle_alpha   89.99931287
_cell_angle_beta   89.99992476
_cell_angle_gamma   120.00001657
_symmetry_Int_Tables_number   1
_chemical_formula_structural   CsErO2
_chemical_formula_sum   'Cs16 Er16 O32'
_cell_volume   1152.89620083
_cell_formula_units_Z   16
loop_
 _symmetry_equiv_pos_site_id
 _symmetry_equiv_pos_as_xyz
  1  'x, y, z'
loop_
 _atom_site_type_symbol
 _atom_site_label
 _atom_site_symmetry_multiplicity
 _atom_site_fract_x
 _atom_site_fract_y
 _atom_site_fract_z
 _atom_site_occupancy
  Cs  Cs0_0  1  0.16666479  0.33333647  0.37500008  1
  Cs  Cs0_1  1  0.16666479  0.33333647  0.87500008  1
  Cs  Cs0_2  1  0.16666479  0.83333647  0.37500008  1
  Cs  Cs0_3  1  0.16666479  0.83333647  0.87500008  1
  Cs  Cs0_4  1  0.66666479  0.33333647  0.37500008  1
  Cs  Cs0_5  1  0.66666479  0.33333647  0.87500008  1
  Cs  Cs0_6  1  0.66666479  0.83333647  0.37500008  1
  Cs  Cs0_7  1  0.66666479  0.83333647  0.87500008  1
  Cs  Cs1_0  1  0.33334188  0.16666725  0.12500016  1
  Cs  Cs1_1  1  0.33334188  0.16666725  0.62500016  1
  Cs  Cs1_2  1  0.33334189  0.66666725  0.12500016  1
  Cs  Cs1_3  1  0.33334188  0.66666725  0.62500016  1
  Cs  Cs1_4  1  0.83334188  0.16666725  0.12500016  1
  Cs  Cs1_5  1  0.83334188  0.16666725  0.62500016  1
  Cs  Cs1_6  1  0.83334188  0.66666725  0.12500016  1
  Cs  Cs1_7  1  0.83334188  0.66666725  0.62500016  1
  Er  Er0_0  1  0.49997313  0.49998065  0.49999992  1
  Er  Er0_1  1  0.49997313  0.49998065  0.99999992  1
  Er  Er0_2  1  0.49997313  0.99998065  0.49999992  1
  Er  Er0_3  1  0.49997313  0.99998065  0.99999992  1
  Er  Er0_4  1  0.99997313  0.49998065  0.49999992  1
  Er  Er0_5  1  0.99997313  0.49998065  0.99999993  1
  Er  Er0_6  1  0.99997313  0.99998065  0.49999992  1
  Er  Er0_7  1  0.99997313  0.99998065  0.99999992  1
  Er  Er1_0  1  0.00002070  0.00001210  0.24999988  1
  Er  Er1_1  1  0.00002070  0.00001210  0.74999988  1
  Er  Er1_2  1  0.00002070  0.50001210  0.24999988  1
  Er  Er1_3  1  0.00002070  0.50001210  0.74999988  1
  Er  Er1_4  1  0.50002069  0.00001210  0.24999988  1
  Er  Er1_5  1  0.50002069  0.00001210  0.74999988  1
  Er  Er1_6  1  0.50002070  0.50001210  0.24999988  1
  Er  Er1_7  1  0.50002070  0.50001210  0.74999988  1
  O  O0_0  1  0.16668548  0.33334924  0.20940106  1
  O  O0_1  1  0.16668549  0.33334924  0.70940106  1
  O  O0_2  1  0.16668549  0.83334924  0.20940106  1
  O  O0_3  1  0.16668549  0.83334924  0.70940106  1
  O  O0_4  1  0.66668548  0.33334924  0.20940106  1
  O  O0_5  1  0.66668548  0.33334924  0.70940106  1
  O  O0_6  1  0.66668548  0.83334924  0.20940106  1
  O  O0_7  1  0.66668549  0.83334924  0.70940106  1
  O  O1_0  1  0.16664703  0.33331815  0.04059887  1
  O  O1_1  1  0.16664703  0.33331815  0.54059887  1
  O  O1_2  1  0.16664703  0.83331815  0.04059887  1
  O  O1_3  1  0.16664703  0.83331815  0.54059887  1
  O  O1_4  1  0.66664702  0.33331815  0.04059887  1
  O  O1_5  1  0.66664702  0.33331815  0.54059887  1
  O  O1_6  1  0.66664702  0.83331815  0.04059887  1
  O  O1_7  1  0.66664702  0.83331815  0.54059887  1
  O  O2_0  1  0.33334899  0.16667698  0.29060653  1
  O  O2_1  1  0.33334899  0.16667698  0.79060653  1
  O  O2_2  1  0.33334899  0.66667698  0.29060653  1
  O  O2_3  1  0.33334899  0.66667698  0.79060653  1
  O  O2_4  1  0.83334899  0.16667698  0.29060653  1
  O  O2_5  1  0.83334899  0.16667698  0.79060653  1
  O  O2_6  1  0.83334899  0.66667698  0.29060653  1
  O  O2_7  1  0.83334899  0.66667698  0.79060653  1
  O  O3_0  1  0.33331799  0.16665869  0.45939347  1
  O  O3_1  1  0.33331799  0.16665869  0.95939347  1
  O  O3_2  1  0.33331799  0.66665869  0.45939347  1
  O  O3_3  1  0.33331800  0.66665869  0.95939347  1
  O  O3_4  1  0.83331799  0.16665869  0.45939347  1
  O  O3_5  1  0.83331800  0.16665869  0.95939347  1
  O  O3_6  1  0.83331799  0.66665869  0.45939347  1
  O  O3_7  1  0.83331799  0.66665869  0.95939347  1
loop_
_geom_bond_atom_site_label_1
_geom_bond_atom_site_label_2
_geom_bond_distance
_geom_bond_site_symmetry_2
Cs0_0 O2_4 3.059599 1_455
Cs0_0 O3_2 3.059632 1_555
Cs0_0 O3_0 3.059635 1_555
Cs0_0 O2_2 3.059664 1_555
Cs0_0 O3_4 3.059694 1_455
Cs0_0 O2_0 3.059708 1_555
Cs0_0 Cs0_4 3.494305 1_555
Cs0_0 Cs0_4 3.494305 1_455
Cs0_0 Cs0_6 3.494305 1_445
Cs0_0 Cs0_6 3.494305 1_555
Cs0_0 Cs0_2 3.494307 1_545
Cs0_0 Cs0_2 3.494307 1_555
Cs0_1 O2_5 3.059599 1_455
Cs0_1 O3_3 3.059632 1_555
Cs0_1 O3_1 3.059635 1_555
Cs0_1 O2_3 3.059664 1_555
Cs0_1 O3_5 3.059694 1_455
Cs0_1 O2_1 3.059708 1_555
Cs0_1 Cs0_5 3.494305 1_555
Cs0_1 Cs0_5 3.494305 1_455
Cs0_1 Cs0_7 3.494305 1_555
Cs0_1 Cs0_7 3.494305 1_445
Cs0_1 Cs0_3 3.494307 1_545
Cs0_1 Cs0_3 3.494307 1_555
Cs0_2 O2_6 3.059599 1_455
Cs0_2 O3_0 3.059632 1_565
Cs0_2 O3_2 3.059635 1_555
Cs0_2 O2_0 3.059664 1_565
Cs0_2 O3_6 3.059694 1_455
Cs0_2 O2_2 3.059708 1_555
Cs0_2 Cs0_6 3.494305 1_555
Cs0_2 Cs0_6 3.494305 1_455
Cs0_2 Cs0_4 3.494305 1_565
Cs0_2 Cs0_4 3.494305 1_455
Cs0_3 O2_7 3.059599 1_455
Cs0_3 O3_1 3.059632 1_565
Cs0_3 O3_3 3.059635 1_555
Cs0_3 O2_1 3.059664 1_565
Cs0_3 O3_7 3.059694 1_455
Cs0_3 O2_3 3.059708 1_555
Cs0_3 Cs0_7 3.494305 1_455
Cs0_3 Cs0_7 3.494305 1_555
Cs0_3 Cs0_5 3.494305 1_565
Cs0_3 Cs0_5 3.494305 1_455
Cs0_4 O2_0 3.059599 1_555
Cs0_4 O3_6 3.059632 1_555
Cs0_4 O3_4 3.059635 1_555
Cs0_4 O2_6 3.059664 1_555
Cs0_4 O3_0 3.059694 1_555
Cs0_4 O2_4 3.059708 1_555
Cs0_4 Cs0_6 3.494307 1_545
Cs0_4 Cs0_6 3.494307 1_555
Cs0_5 O2_1 3.059599 1_555
Cs0_5 O3_7 3.059632 1_555
Cs0_5 O3_5 3.059635 1_555
Cs0_5 O2_7 3.059664 1_555
Cs0_5 O3_1 3.059694 1_555
Cs0_5 O2_5 3.059708 1_555
Cs0_5 Cs0_7 3.494307 1_555
Cs0_5 Cs0_7 3.494307 1_545
Cs0_6 O2_2 3.059599 1_555
Cs0_6 O3_4 3.059632 1_565
Cs0_6 O3_6 3.059635 1_555
Cs0_6 O2_4 3.059664 1_565
Cs0_6 O3_2 3.059694 1_555
Cs0_6 O2_6 3.059708 1_555
Cs0_7 O2_3 3.059599 1_555
Cs0_7 O3_5 3.059632 1_565
Cs0_7 O3_7 3.059635 1_555
Cs0_7 O2_5 3.059664 1_565
Cs0_7 O3_3 3.059694 1_555
Cs0_7 O2_7 3.059708 1_555
Cs1_0 O1_4 3.059690 1_555
Cs1_0 O0_2 3.059725 1_545
Cs1_0 O0_0 3.059837 1_555
Cs1_0 O1_0 3.059856 1_555
Cs1_0 O0_4 3.059861 1_555
Cs1_0 O1_2 3.059901 1_545
Cs1_0 Cs1_4 3.494305 1_555
Cs1_0 Cs1_4 3.494305 1_455
Cs1_0 Cs1_6 3.494305 1_445
Cs1_0 Cs1_6 3.494305 1_555
Cs1_0 Cs1_2 3.494307 1_545
Cs1_0 Cs1_2 3.494307 1_555
Cs1_1 O1_5 3.059690 1_555
Cs1_1 O0_3 3.059725 1_545
Cs1_1 O0_1 3.059837 1_555
Cs1_1 O1_1 3.059856 1_555
Cs1_1 O0_5 3.059861 1_555
Cs1_1 O1_3 3.059901 1_545
Cs1_1 Cs1_5 3.494305 1_555
Cs1_1 Cs1_5 3.494305 1_455
Cs1_1 Cs1_7 3.494305 1_445
Cs1_1 Cs1_7 3.494305 1_555
Cs1_1 Cs1_3 3.494307 1_545
Cs1_1 Cs1_3 3.494307 1_555
Cs1_2 O1_6 3.059690 1_555
Cs1_2 O0_0 3.059725 1_555
Cs1_2 O0_2 3.059837 1_555
Cs1_2 O1_2 3.059856 1_555
Cs1_2 O0_6 3.059861 1_555
Cs1_2 O1_0 3.059901 1_555
Cs1_2 Cs1_6 3.494305 1_555
Cs1_2 Cs1_6 3.494305 1_455
Cs1_2 Cs1_4 3.494305 1_565
Cs1_2 Cs1_4 3.494305 1_455
Cs1_3 O1_7 3.059690 1_555
Cs1_3 O0_1 3.059725 1_555
Cs1_3 O0_3 3.059837 1_555
Cs1_3 O1_3 3.059856 1_555
Cs1_3 O0_7 3.059861 1_555
Cs1_3 O1_1 3.059901 1_555
Cs1_3 Cs1_7 3.494305 1_555
Cs1_3 Cs1_7 3.494305 1_455
Cs1_3 Cs1_5 3.494305 1_565
Cs1_3 Cs1_5 3.494305 1_455
Cs1_4 O1_0 3.059690 1_655
Cs1_4 O0_6 3.059725 1_545
Cs1_4 O0_4 3.059837 1_555
Cs1_4 O1_4 3.059856 1_555
Cs1_4 O0_0 3.059861 1_655
Cs1_4 O1_6 3.059901 1_545
Cs1_4 Cs1_6 3.494307 1_555
Cs1_4 Cs1_6 3.494307 1_545
Cs1_5 O1_1 3.059690 1_655
Cs1_5 O0_7 3.059725 1_545
Cs1_5 O0_5 3.059837 1_555
Cs1_5 O1_5 3.059856 1_555
Cs1_5 O0_1 3.059861 1_655
Cs1_5 O1_7 3.059901 1_545
Cs1_5 Cs1_7 3.494307 1_545
Cs1_5 Cs1_7 3.494307 1_555
Cs1_6 O1_2 3.059690 1_655
Cs1_6 O0_4 3.059725 1_555
Cs1_6 O0_6 3.059837 1_555
Cs1_6 O1_6 3.059856 1_555
Cs1_6 O0_2 3.059861 1_655
Cs1_6 O1_4 3.059901 1_555
Cs1_7 O1_3 3.059690 1_655
Cs1_7 O0_5 3.059725 1_555
Cs1_7 O0_7 3.059837 1_555
Cs1_7 O1_7 3.059856 1_555
Cs1_7 O0_3 3.059861 1_655
Cs1_7 O1_5 3.059901 1_555
Er0_0 O1_1 2.300959 1_555
Er0_0 O1_5 2.301017 1_555
Er0_0 O1_7 2.301043 1_555
Er0_0 O3_0 2.301059 1_555
Er0_0 O3_2 2.301098 1_555
Er0_0 O3_6 2.301157 1_555
Er0_1 O1_0 2.300959 1_556
Er0_1 O1_4 2.301017 1_556
Er0_1 O1_6 2.301043 1_556
Er0_1 O3_1 2.301059 1_555
Er0_1 O3_3 2.301098 1_555
Er0_1 O3_7 2.301157 1_555
Er0_2 O1_3 2.300959 1_555
Er0_2 O1_7 2.301017 1_555
Er0_2 O1_5 2.301043 1_565
Er0_2 O3_2 2.301059 1_555
Er0_2 O3_0 2.301098 1_565
Er0_2 O3_4 2.301157 1_565
Er0_3 O1_2 2.300959 1_556
Er0_3 O1_6 2.301017 1_556
Er0_3 O1_4 2.301043 1_566
Er0_3 O3_3 2.301059 1_555
Er0_3 O3_1 2.301098 1_565
Er0_3 O3_5 2.301157 1_565
Er0_4 O1_5 2.300959 1_555
Er0_4 O1_1 2.301017 1_655
Er0_4 O1_3 2.301043 1_655
Er0_4 O3_4 2.301059 1_555
Er0_4 O3_6 2.301098 1_555
Er0_4 O3_2 2.301157 1_655
Er0_5 O1_4 2.300959 1_556
Er0_5 O1_0 2.301017 1_656
Er0_5 O1_2 2.301043 1_656
Er0_5 O3_5 2.301059 1_555
Er0_5 O3_7 2.301098 1_555
Er0_5 O3_3 2.301157 1_655
Er0_6 O1_7 2.300959 1_555
Er0_6 O1_3 2.301017 1_655
Er0_6 O1_1 2.301043 1_665
Er0_6 O3_6 2.301059 1_555
Er0_6 O3_4 2.301098 1_565
Er0_6 O3_0 2.301157 1_665
Er0_7 O1_6 2.300959 1_556
Er0_7 O1_2 2.301017 1_656
Er0_7 O1_0 2.301043 1_666
Er0_7 O3_7 2.301059 1_555
Er0_7 O3_5 2.301098 1_565
Er0_7 O3_1 2.301157 1_665
Er1_0 O0_2 2.300981 1_545
Er1_0 O0_0 2.301011 1_555
Er1_0 O0_6 2.301023 1_445
Er1_0 O2_0 2.301088 1_555
Er1_0 O2_6 2.301103 1_445
Er1_0 O2_4 2.301131 1_455
Er1_1 O0_3 2.300981 1_545
Er1_1 O0_1 2.301011 1_555
Er1_1 O0_7 2.301023 1_445
Er1_1 O2_1 2.301088 1_555
Er1_1 O2_7 2.301103 1_445
Er1_1 O2_5 2.301131 1_455
Er1_2 O0_0 2.300981 1_555
Er1_2 O0_2 2.301011 1_555
Er1_2 O0_4 2.301023 1_455
Er1_2 O2_2 2.301088 1_555
Er1_2 O2_4 2.301103 1_455
Er1_2 O2_6 2.301131 1_455
Er1_3 O0_1 2.300981 1_555
Er1_3 O0_3 2.301011 1_555
Er1_3 O0_5 2.301023 1_455
Er1_3 O2_3 2.301088 1_555
Er1_3 O2_5 2.301103 1_455
Er1_3 O2_7 2.301131 1_455
Er1_4 O0_6 2.300981 1_545
Er1_4 O0_4 2.301011 1_555
Er1_4 O0_2 2.301023 1_545
Er1_4 O2_4 2.301088 1_555
Er1_4 O2_2 2.301103 1_545
Er1_4 O2_0 2.301131 1_555
Er1_5 O0_7 2.300981 1_545
Er1_5 O0_5 2.301011 1_555
Er1_5 O0_3 2.301023 1_545
Er1_5 O2_5 2.301088 1_555
Er1_5 O2_3 2.301103 1_545
Er1_5 O2_1 2.301131 1_555
Er1_6 O0_4 2.300981 1_555
Er1_6 O0_6 2.301011 1_555
Er1_6 O0_0 2.301023 1_555
Er1_6 O2_6 2.301088 1_555
Er1_6 O2_0 2.301103 1_555
Er1_6 O2_2 2.301131 1_555
Er1_7 O0_5 2.300981 1_555
Er1_7 O0_7 2.301011 1_555
Er1_7 O0_1 2.301023 1_555
Er1_7 O2_7 2.301088 1_555
Er1_7 O2_1 2.301103 1_555
Er1_7 O2_3 2.301131 1_555
