# generated using pymatgen
data_KCdP3H8O13
_symmetry_space_group_name_H-M   'P 1'
_cell_length_a   7.54350400
_cell_length_b   11.51040424
_cell_length_c   14.59979958
_cell_angle_alpha   97.79570105
_cell_angle_beta   89.50637613
_cell_angle_gamma   97.69703564
_symmetry_Int_Tables_number   1
_chemical_formula_structural   KCdP3H8O13
_chemical_formula_sum   'K4 Cd4 P12 H32 O52'
_cell_volume   1244.59189430
_cell_formula_units_Z   4
loop_
 _symmetry_equiv_pos_site_id
 _symmetry_equiv_pos_as_xyz
  1  'x, y, z'
loop_
 _atom_site_type_symbol
 _atom_site_label
 _atom_site_symmetry_multiplicity
 _atom_site_fract_x
 _atom_site_fract_y
 _atom_site_fract_z
 _atom_site_occupancy
  K  K0  1  0.97313600  0.31777500  0.69257100  1
  K  K1  1  0.02686400  0.68222500  0.30742900  1
  K  K2  1  0.49730700  0.33883000  0.05786900  1
  K  K3  1  0.50269300  0.66117000  0.94213100  1
  Cd  Cd0  1  0.74549200  0.75224800  0.73817600  1
  Cd  Cd1  1  0.25450800  0.24775200  0.26182400  1
  Cd  Cd2  1  0.37309700  0.14222700  0.73789800  1
  Cd  Cd3  1  0.62690300  0.85777300  0.26210200  1
  P  P0  1  0.99815400  0.87241500  0.10510500  1
  P  P1  1  0.00184600  0.12758500  0.89489500  1
  P  P2  1  0.01495700  0.71417200  0.92690200  1
  P  P3  1  0.98504300  0.28582800  0.07309800  1
  P  P4  1  0.14245400  0.91145900  0.82159300  1
  P  P5  1  0.85754600  0.08854100  0.17840700  1
  P  P6  1  0.50807100  0.62383200  0.38802100  1
  P  P7  1  0.49192900  0.37616800  0.61197900  1
  P  P8  1  0.46259200  0.78359100  0.56285200  1
  P  P9  1  0.53740800  0.21640900  0.43714800  1
  P  P10  1  0.66474200  0.40888500  0.32507500  1
  P  P11  1  0.33525800  0.59111500  0.67492500  1
  H  H0  1  0.81804900  0.50017400  0.85122600  1
  H  H1  1  0.18195100  0.49982600  0.14877400  1
  H  H2  1  0.84805200  0.40872800  0.91922000  1
  H  H3  1  0.15194800  0.59127200  0.08078000  1
  H  H4  1  0.64185500  0.18339400  0.87558400  1
  H  H5  1  0.35814500  0.81660600  0.12441600  1
  H  H6  1  0.38240900  0.69052300  0.14803700  1
  H  H7  1  0.61759100  0.30947700  0.85196300  1
  H  H8  1  0.49319500  0.09911500  0.16581000  1
  H  H9  1  0.50680500  0.90088500  0.83419000  1
  H  H10  1  0.69287500  0.95240500  0.87795500  1
  H  H11  1  0.30712500  0.04759500  0.12204500  1
  H  H12  1  0.84313700  0.89070500  0.44045600  1
  H  H13  1  0.15686300  0.10929500  0.55954400  1
  H  H14  1  0.73342400  0.00321700  0.43379200  1
  H  H15  1  0.26657600  0.99678300  0.56620800  1
  H  H16  1  0.79223000  0.54764600  0.61358000  1
  H  H17  1  0.20777000  0.45235400  0.38642000  1
  H  H18  1  0.98197200  0.60387800  0.65230000  1
  H  H19  1  0.01802800  0.39612200  0.34770000  1
  H  H20  1  0.91151000  0.18234400  0.49222800  1
  H  H21  1  0.08849000  0.81765600  0.50777200  1
  H  H22  1  0.91646500  0.73567500  0.53059400  1
  H  H23  1  0.08353500  0.26432500  0.46940600  1
  H  H24  1  0.36883300  0.99987100  0.34502000  1
  H  H25  1  0.63116700  0.00012900  0.65498000  1
  H  H26  1  0.63251400  0.10514000  0.59597600  1
  H  H27  1  0.36748600  0.89486000  0.40402400  1
  H  H28  1  0.79459200  0.52007100  0.08714300  1
  H  H29  1  0.20540800  0.47992900  0.91285700  1
  H  H30  1  0.74714600  0.64771400  0.11537200  1
  H  H31  1  0.25285400  0.35228600  0.88462800  1
  O  O0  1  0.80165800  0.10325700  0.89244000  1
  O  O1  1  0.19834200  0.89674300  0.10756000  1
  O  O2  1  0.10319500  0.18866400  0.82093400  1
  O  O3  1  0.89680500  0.81133600  0.17906600  1
  O  O4  1  0.07291800  0.19932200  0.99390900  1
  O  O5  1  0.92708200  0.80067800  0.00609100  1
  O  O6  1  0.87862300  0.36797200  0.03338300  1
  O  O7  1  0.12137700  0.63202800  0.96661700  1
  O  O8  1  0.86117200  0.66423700  0.86126500  1
  O  O9  1  0.13882800  0.33576300  0.13873500  1
  O  O10  1  0.16236500  0.80402000  0.87941700  1
  O  O11  1  0.83763500  0.19598000  0.12058300  1
  O  O12  1  0.67080600  0.04220000  0.20657700  1
  O  O13  1  0.32919400  0.95780000  0.79342300  1
  O  O14  1  0.00156300  0.87834300  0.74777400  1
  O  O15  1  0.99843700  0.12165700  0.25222600  1
  O  O16  1  0.07998200  0.00572100  0.90412500  1
  O  O17  1  0.92001800  0.99427900  0.09587500  1
  O  O18  1  0.30854400  0.59675300  0.37887900  1
  O  O19  1  0.69145600  0.40324700  0.62112100  1
  O  O20  1  0.61843200  0.68116500  0.31576100  1
  O  O21  1  0.38156800  0.31883500  0.68423900  1
  O  O22  1  0.43615000  0.30010300  0.51165500  1
  O  O23  1  0.56385000  0.69989700  0.48834500  1
  O  O24  1  0.64737900  0.13974200  0.48282300  1
  O  O25  1  0.35262100  0.86025800  0.51717700  1
  O  O26  1  0.60587400  0.84337500  0.63149600  1
  O  O27  1  0.39412600  0.15662500  0.36850400  1
  O  O28  1  0.31999300  0.69387100  0.61070400  1
  O  O29  1  0.68000700  0.30612900  0.38929600  1
  O  O30  1  0.47670000  0.63145700  0.74941000  1
  O  O31  1  0.52330000  0.36854300  0.25059000  1
  O  O32  1  0.14833900  0.55022700  0.70218900  1
  O  O33  1  0.85166100  0.44977300  0.29781100  1
  O  O34  1  0.59260400  0.50570800  0.40292900  1
  O  O35  1  0.40739600  0.49429200  0.59707100  1
  O  O36  1  0.80668900  0.41471600  0.85608600  1
  O  O37  1  0.19331100  0.58528400  0.14391400  1
  O  O38  1  0.54667000  0.23402500  0.86604400  1
  O  O39  1  0.45333000  0.76597500  0.13395600  1
  O  O40  1  0.38269300  0.12429200  0.14243200  1
  O  O41  1  0.61730700  0.87570800  0.85756800  1
  O  O42  1  0.21650400  0.06436400  0.60115900  1
  O  O43  1  0.78349600  0.93563600  0.39884100  1
  O  O44  1  0.12934100  0.37453900  0.37510100  1
  O  O45  1  0.87065900  0.62546100  0.62489900  1
  O  O46  1  0.96471900  0.79015700  0.48711000  1
  O  O47  1  0.03528100  0.20984300  0.51289000  1
  O  O48  1  0.37018100  0.91271900  0.33930400  1
  O  O49  1  0.62981900  0.08728100  0.66069600  1
  O  O50  1  0.70429200  0.57186800  0.07866900  1
  O  O51  1  0.29570800  0.42813200  0.92133100  1
loop_
_geom_bond_atom_site_label_1
_geom_bond_atom_site_label_2
_geom_bond_distance
_geom_bond_site_symmetry_2
K0 O19 2.729039 1_555
K0 O2 2.803758 1_655
K0 O32 2.807029 1_655
K0 O47 2.809913 1_655
K0 O36 2.849865 1_555
K0 O21 3.080817 1_655
K0 O49 3.436252 1_555
K1 O18 2.729039 1_555
K1 O3 2.803758 1_455
K1 O33 2.807029 1_455
K1 O46 2.809913 1_455
K1 O37 2.849865 1_555
K1 O20 3.080817 1_455
K1 O48 3.436252 1_555
K2 O31 2.793339 1_555
K2 O6 2.875880 1_555
K2 O51 2.893077 1_554
K2 O50 2.896640 1_555
K2 O40 2.933694 1_555
K2 O38 2.936522 1_554
K2 O9 2.939130 1_555
K2 O11 3.422347 1_555
K2 O4 3.459345 1_554
K3 O30 2.793339 1_555
K3 O7 2.875880 1_555
K3 O50 2.893077 1_556
K3 O51 2.896640 1_555
K3 O41 2.933694 1_555
K3 O39 2.936522 1_556
K3 O8 2.939130 1_555
K3 O10 3.422347 1_555
K3 O5 3.459345 1_556
Cd0 O14 2.248566 1_655
Cd0 O30 2.317812 1_555
Cd0 O26 2.324362 1_555
Cd0 O45 2.333205 1_555
Cd0 O41 2.379060 1_555
Cd0 O8 2.403105 1_555
Cd1 O15 2.248566 1_455
Cd1 O31 2.317812 1_555
Cd1 O27 2.324362 1_555
Cd1 O44 2.333205 1_555
Cd1 O40 2.379060 1_555
Cd1 O9 2.403105 1_555
Cd2 O21 2.268608 1_555
Cd2 O42 2.335751 1_555
Cd2 O38 2.338050 1_555
Cd2 O49 2.349014 1_555
Cd2 O13 2.355237 1_545
Cd2 O2 2.444159 1_555
Cd3 O20 2.268608 1_555
Cd3 O43 2.335751 1_555
Cd3 O39 2.338050 1_555
Cd3 O48 2.349014 1_555
Cd3 O12 2.355237 1_565
Cd3 O3 2.444159 1_555
H0 O36 0.988032 1_555
H0 O8 1.858671 1_555
H0 K3 3.363616 1_555
H1 O37 0.988032 1_555
H1 O9 1.858671 1_555
H1 K2 3.363616 1_555
H2 O36 0.989783 1_555
H2 O6 1.816329 1_556
H3 O37 0.989783 1_555
H3 O7 1.816329 1_554
H4 O38 1.005204 1_555
H4 O0 1.652004 1_555
H5 O39 1.005204 1_555
H5 O1 1.652004 1_555
H6 O39 1.002408 1_555
H7 O38 1.002408 1_555
H8 O40 0.995874 1_555
H8 O12 1.712644 1_555
H9 O41 0.995874 1_555
H9 O13 1.712644 1_555
H10 O41 0.994858 1_555
H10 O0 1.804101 1_565
H11 O40 0.994858 1_555
H11 O1 1.804101 1_545
H12 O43 0.995642 1_555
H13 O42 0.995642 1_555
H14 O43 0.987857 1_545
H14 O24 1.833922 1_555
H15 O42 0.987857 1_565
H15 O25 1.833922 1_555
H16 O45 0.999582 1_555
H16 O19 1.749943 1_555
H17 O44 0.999582 1_555
H17 O18 1.749943 1_555
H18 O45 1.007702 1_555
H18 O32 1.682932 1_655
H19 O44 1.007702 1_555
H19 O33 1.682932 1_455
H20 O47 0.981177 1_655
H20 O24 1.988464 1_555
H21 O46 0.981177 1_455
H21 O25 1.988464 1_555
H22 O46 0.985741 1_555
H23 O47 0.985741 1_555
H24 O48 0.996692 1_555
H24 O27 1.774979 1_565
H25 O49 0.996692 1_555
H25 O26 1.774979 1_545
H26 O49 0.993351 1_555
H26 O24 1.750338 1_555
H27 O48 0.993351 1_555
H27 O25 1.750338 1_555
H28 O50 0.982354 1_555
H28 O6 1.999702 1_555
H28 K2 2.843464 1_555
H29 O51 0.982354 1_555
H29 O7 1.999702 1_555
H29 K3 2.843464 1_555
H30 O50 0.976874 1_555
H31 O51 0.976874 1_555
O0 P1 1.498364 1_655
O1 P0 1.498364 1_455
O2 P1 1.514106 1_555
O3 P0 1.514106 1_555
O4 P3 1.618284 1_456
O4 P1 1.621703 1_555
O5 P2 1.618284 1_654
O5 P0 1.621703 1_555
O6 P3 1.494898 1_555
O7 P2 1.494898 1_555
O8 P2 1.511814 1_655
O9 P3 1.511814 1_455
O10 P4 1.612381 1_555
O10 P2 1.630896 1_555
O11 P5 1.612381 1_555
O11 P3 1.630896 1_555
O12 P5 1.512047 1_555
O13 P4 1.512047 1_555
O14 P4 1.495381 1_555
O15 P5 1.495381 1_555
O16 P1 1.614704 1_555
O16 P4 1.619789 1_545
O17 P0 1.614704 1_555
O17 P5 1.619789 1_565
O18 P6 1.498966 1_555
O19 P7 1.498966 1_555
O20 P6 1.506031 1_555
O21 P7 1.506031 1_555
O22 P9 1.610370 1_555
O22 P7 1.628813 1_555
O23 P8 1.610370 1_555
O23 P6 1.628813 1_555
O24 P9 1.508935 1_555
O25 P8 1.508935 1_555
O26 P8 1.509467 1_555
O27 P9 1.509467 1_555
O28 P8 1.611492 1_555
O28 P11 1.621881 1_555
O29 P9 1.611492 1_555
O29 P10 1.621881 1_555
O30 P11 1.512255 1_555
O31 P10 1.512255 1_555
O32 P11 1.493821 1_555
O33 P10 1.493821 1_555
O34 P6 1.617895 1_555
O34 P10 1.624283 1_555
O35 P7 1.617895 1_555
O35 P11 1.624283 1_555
