# generated using pymatgen
data_Fe4OF7
_symmetry_space_group_name_H-M   'P 1'
_cell_length_a   4.81036900
_cell_length_b   6.48787020
_cell_length_c   10.15955766
_cell_angle_alpha   71.55222871
_cell_angle_beta   89.19567162
_cell_angle_gamma   89.73729691
_symmetry_Int_Tables_number   1
_chemical_formula_structural   Fe4OF7
_chemical_formula_sum   'Fe8 O2 F14'
_cell_volume   300.74705906
_cell_formula_units_Z   2
loop_
 _symmetry_equiv_pos_site_id
 _symmetry_equiv_pos_as_xyz
  1  'x, y, z'
loop_
 _atom_site_type_symbol
 _atom_site_label
 _atom_site_symmetry_multiplicity
 _atom_site_fract_x
 _atom_site_fract_y
 _atom_site_fract_z
 _atom_site_occupancy
  Fe  Fe0  1  0.49181700  0.62155000  0.25808300  1
  Fe  Fe1  1  0.51153700  0.87832300  0.74501100  1
  Fe  Fe2  1  0.48143900  0.36995100  0.76052900  1
  Fe  Fe3  1  0.49854600  0.12808600  0.24985700  1
  Fe  Fe4  1  0.01871000  0.49118500  0.99247100  1
  Fe  Fe5  1  0.01000200  0.74366200  0.49624700  1
  Fe  Fe6  1  0.01100500  0.00902700  0.99559400  1
  Fe  Fe7  1  0.01752400  0.27541900  0.49249900  1
  O  O0  1  0.19554200  0.53287200  0.40647700  1
  O  O1  1  0.19018500  0.31185000  0.90709300  1
  F  F0  1  0.19837100  0.06606000  0.40170200  1
  F  F1  1  0.20266100  0.78361700  0.90108200  1
  F  F2  1  0.29415700  0.42895400  0.14755400  1
  F  F3  1  0.28974100  0.16874100  0.64944400  1
  F  F4  1  0.30295100  0.92691200  0.14977000  1
  F  F5  1  0.30354100  0.68254700  0.64915300  1
  F  F6  1  0.70348100  0.06887200  0.84984200  1
  F  F7  1  0.71117100  0.58228800  0.85255100  1
  F  F8  1  0.70453100  0.83260600  0.34937100  1
  F  F9  1  0.70994200  0.31835300  0.35365000  1
  F  F10  1  0.81432500  0.97277900  0.59229800  1
  F  F11  1  0.79954300  0.21938700  0.10070500  1
  F  F12  1  0.79067500  0.43097700  0.60441800  1
  F  F13  1  0.80970100  0.68473500  0.09655300  1
loop_
_geom_bond_atom_site_label_1
_geom_bond_atom_site_label_2
_geom_bond_distance
_geom_bond_site_symmetry_2
Fe0 O0 2.008317 1_555
Fe2 O1 1.978192 1_555
Fe4 O1 1.842918 1_555
Fe5 O0 2.062514 1_555
Fe6 O1 2.070528 1_555
Fe7 O0 1.831749 1_555
F0 Fe3 2.043695 1_555
F0 Fe7 2.052389 1_555
F0 Fe5 2.200047 1_545
F0 F10 2.587827 1_445
F0 F9 2.815858 1_455
F0 F3 2.840235 1_555
F1 Fe4 2.030304 1_555
F1 Fe1 2.103560 1_555
F1 Fe6 2.182234 1_565
F1 F13 2.651029 1_456
F1 F7 2.829763 1_455
F1 F2 2.851965 1_556
F1 F5 2.870685 1_555
F2 Fe4 2.013004 1_554
F2 Fe3 2.141094 1_555
F2 Fe0 2.157603 1_555
F2 O1 2.829835 1_554
F3 Fe7 2.021881 1_555
F3 Fe1 2.117557 1_545
F3 Fe2 2.191075 1_555
F4 Fe6 2.058234 1_564
F4 Fe3 2.121511 1_565
F4 Fe0 2.143150 1_555
F5 Fe5 2.056916 1_555
F5 Fe1 2.093970 1_555
F5 Fe2 2.164419 1_555
F5 F7 2.790980 1_555
F6 Fe6 2.055275 1_655
F6 Fe1 2.094402 1_545
F6 Fe2 2.160125 1_555
F7 Fe4 2.019385 1_655
F7 Fe1 2.118781 1_555
F7 Fe2 2.202539 1_555
F7 O1 2.842272 1_655
F8 Fe5 2.056133 1_655
F8 Fe3 2.112600 1_565
F8 Fe0 2.150669 1_555
F9 Fe7 2.015642 1_655
F9 Fe3 2.129616 1_555
F9 Fe0 2.171190 1_555
F10 Fe1 2.060862 1_555
F10 Fe7 2.137422 1_665
F10 Fe5 2.219752 1_655
F10 F3 2.777515 1_665
F10 F9 2.782247 1_565
F11 Fe3 2.030196 1_555
F11 Fe4 2.046338 1_654
F11 Fe6 2.217405 1_654
F12 Fe7 2.045373 1_655
F12 Fe2 2.103981 1_555
F12 Fe5 2.238844 1_655
F12 F6 2.860869 1_555
F13 Fe4 2.122449 1_654
F13 Fe0 2.170016 1_555
F13 Fe6 2.245315 1_664
F13 F7 2.808964 1_554
F13 F2 2.812011 1_655
F13 F2 2.937685 1_555
F13 F9 2.957860 1_555
F13 F6 2.970785 1_564
