# generated using pymatgen
data_Na3B3H2O7
_symmetry_space_group_name_H-M   'P 1'
_cell_length_a   7.06791371
_cell_length_b   8.84223616
_cell_length_c   9.51768791
_cell_angle_alpha   90.00000000
_cell_angle_beta   90.00000000
_cell_angle_gamma   90.00000000
_symmetry_Int_Tables_number   1
_chemical_formula_structural   Na3B3H2O7
_chemical_formula_sum   'Na12 B12 H8 O28'
_cell_volume   594.81896722
_cell_formula_units_Z   4
loop_
 _symmetry_equiv_pos_site_id
 _symmetry_equiv_pos_as_xyz
  1  'x, y, z'
loop_
 _atom_site_type_symbol
 _atom_site_label
 _atom_site_symmetry_multiplicity
 _atom_site_fract_x
 _atom_site_fract_y
 _atom_site_fract_z
 _atom_site_occupancy
  Na  Na0  1  0.50252920  0.77197769  0.19584933  1
  Na  Na1  1  0.99747080  0.27197769  0.30415067  1
  Na  Na2  1  0.00252920  0.22802231  0.80415067  1
  Na  Na3  1  0.49747080  0.72802231  0.69584933  1
  Na  Na4  1  0.49747080  0.22802231  0.80415067  1
  Na  Na5  1  0.00252920  0.72802231  0.69584933  1
  Na  Na6  1  0.99747080  0.77197769  0.19584933  1
  Na  Na7  1  0.50252920  0.27197769  0.30415067  1
  Na  Na8  1  0.75000000  0.03751427  0.16897210  1
  Na  Na9  1  0.75000000  0.53751427  0.33102790  1
  Na  Na10  1  0.25000000  0.96248573  0.83102790  1
  Na  Na11  1  0.25000000  0.46248573  0.66897210  1
  B  B0  1  0.25000000  0.01497881  0.28410222  1
  B  B1  1  0.25000000  0.51497881  0.21589778  1
  B  B2  1  0.75000000  0.98502119  0.71589778  1
  B  B3  1  0.75000000  0.48502119  0.78410222  1
  B  B4  1  0.25000000  0.09501769  0.54364268  1
  B  B5  1  0.25000000  0.59501769  0.95635732  1
  B  B6  1  0.75000000  0.90498231  0.45635732  1
  B  B7  1  0.75000000  0.40498231  0.04364268  1
  B  B8  1  0.25000000  0.82184584  0.47984942  1
  B  B9  1  0.25000000  0.32184584  0.02015058  1
  B  B10  1  0.75000000  0.17815416  0.52015058  1
  B  B11  1  0.75000000  0.67815416  0.97984942  1
  H  H0  1  0.37966603  0.08538106  0.10694881  1
  H  H1  1  0.12033397  0.58538106  0.39305119  1
  H  H2  1  0.87966603  0.91461894  0.89305119  1
  H  H3  1  0.62033397  0.41461894  0.60694881  1
  H  H4  1  0.62033397  0.91461894  0.89305119  1
  H  H5  1  0.87966603  0.41461894  0.60694881  1
  H  H6  1  0.12033397  0.08538106  0.10694881  1
  H  H7  1  0.37966603  0.58538106  0.39305119  1
  O  O0  1  0.42035961  0.03481209  0.19441872  1
  O  O1  1  0.07964039  0.53481209  0.30558128  1
  O  O2  1  0.92035961  0.96518791  0.80558128  1
  O  O3  1  0.57964039  0.46518791  0.69441872  1
  O  O4  1  0.57964039  0.96518791  0.80558128  1
  O  O5  1  0.92035961  0.46518791  0.69441872  1
  O  O6  1  0.07964039  0.03481209  0.19441872  1
  O  O7  1  0.42035961  0.53481209  0.30558128  1
  O  O8  1  0.25000000  0.86039189  0.33978403  1
  O  O9  1  0.25000000  0.36039189  0.16021597  1
  O  O10  1  0.75000000  0.13960811  0.66021597  1
  O  O11  1  0.75000000  0.63960811  0.83978403  1
  O  O12  1  0.25000000  0.12706086  0.40012698  1
  O  O13  1  0.25000000  0.62706086  0.09987302  1
  O  O14  1  0.75000000  0.87293914  0.59987302  1
  O  O15  1  0.75000000  0.37293914  0.90012698  1
  O  O16  1  0.25000000  0.19877114  0.64362570  1
  O  O17  1  0.25000000  0.69877114  0.85637430  1
  O  O18  1  0.75000000  0.80122886  0.35637430  1
  O  O19  1  0.75000000  0.30122886  0.14362570  1
  O  O20  1  0.25000000  0.93790894  0.58015798  1
  O  O21  1  0.25000000  0.43790894  0.91984202  1
  O  O22  1  0.75000000  0.06209106  0.41984202  1
  O  O23  1  0.75000000  0.56209106  0.08015798  1
  O  O24  1  0.25000000  0.67724466  0.52345125  1
  O  O25  1  0.25000000  0.17724466  0.97654875  1
  O  O26  1  0.75000000  0.32275534  0.47654875  1
  O  O27  1  0.75000000  0.82275534  0.02345125  1
loop_
_geom_bond_atom_site_label_1
_geom_bond_atom_site_label_2
_geom_bond_distance
_geom_bond_site_symmetry_2
Na0 O18 2.336773 1_555
Na0 O13 2.379516 1_555
Na0 O8 2.381928 1_555
Na0 O0 2.395549 1_565
Na0 O7 2.413663 1_555
Na0 O27 2.439934 1_555
Na0 O23 2.777779 1_555
Na1 O19 2.336773 1_555
Na1 O12 2.379516 1_655
Na1 O9 2.381928 1_655
Na1 O1 2.395549 1_655
Na1 O6 2.413663 1_655
Na1 O26 2.439934 1_555
Na1 O22 2.777779 1_555
Na2 O16 2.336773 1_555
Na2 O15 2.379516 1_455
Na2 O10 2.381928 1_455
Na2 O2 2.395549 1_445
Na2 O5 2.413663 1_455
Na2 O25 2.439934 1_555
Na2 O21 2.777779 1_555
Na3 O17 2.336773 1_555
Na3 O14 2.379516 1_555
Na3 O11 2.381928 1_555
Na3 O3 2.395549 1_555
Na3 O4 2.413663 1_555
Na3 O24 2.439934 1_555
Na3 O20 2.777779 1_555
Na4 O16 2.336773 1_555
Na4 O15 2.379516 1_555
Na4 O10 2.381928 1_555
Na4 O4 2.395549 1_545
Na4 O3 2.413663 1_555
Na4 O25 2.439934 1_555
Na4 O21 2.777779 1_555
Na5 O17 2.336773 1_555
Na5 O14 2.379516 1_455
Na5 O11 2.381928 1_455
Na5 O5 2.395549 1_455
Na5 O2 2.413663 1_455
Na5 O24 2.439934 1_555
Na5 O20 2.777779 1_555
Na6 O18 2.336773 1_555
Na6 O13 2.379516 1_655
Na6 O8 2.381928 1_655
Na6 O6 2.395549 1_665
Na6 O1 2.413663 1_655
Na6 O27 2.439934 1_555
Na6 O23 2.777779 1_555
Na7 O19 2.336773 1_555
Na7 O12 2.379516 1_555
Na7 O9 2.381928 1_555
Na7 O7 2.395549 1_555
Na7 O0 2.413663 1_555
Na7 O26 2.439934 1_555
Na7 O22 2.777779 1_555
Na8 O0 2.342546 1_555
Na8 O6 2.342546 1_655
Na8 O19 2.344272 1_555
Na8 O27 2.350382 1_545
Na8 O22 2.397570 1_555
Na8 O18 2.747088 1_545
Na9 O7 2.342546 1_555
Na9 O1 2.342546 1_655
Na9 O18 2.344272 1_555
Na9 O26 2.350382 1_555
Na9 O23 2.397570 1_555
Na9 O19 2.747088 1_555
Na10 O4 2.342546 1_555
Na10 O2 2.342546 1_455
Na10 O17 2.344272 1_555
Na10 O25 2.350382 1_565
Na10 O20 2.397570 1_555
Na10 O16 2.747088 1_565
Na11 O3 2.342546 1_555
Na11 O5 2.342546 1_455
Na11 O16 2.344272 1_555
Na11 O24 2.350382 1_555
Na11 O21 2.397570 1_555
Na11 O17 2.747088 1_555
B0 O8 1.466035 1_545
B0 O12 1.483793 1_555
B0 O6 1.486331 1_555
B0 O0 1.486331 1_555
B1 O9 1.466035 1_555
B1 O13 1.483793 1_555
B1 O7 1.486331 1_555
B1 O1 1.486331 1_555
B2 O10 1.466035 1_565
B2 O14 1.483793 1_555
B2 O4 1.486331 1_555
B2 O2 1.486331 1_555
B3 O11 1.466035 1_555
B3 O15 1.483793 1_555
B3 O5 1.486331 1_555
B3 O3 1.486331 1_555
B4 O16 1.321818 1_555
B4 O12 1.395014 1_555
B4 O20 1.432006 1_545
B5 O17 1.321818 1_555
B5 O13 1.395014 1_556
B5 O21 1.432006 1_555
B6 O18 1.321818 1_555
B6 O14 1.395014 1_555
B6 O22 1.432006 1_565
B7 O19 1.321818 1_555
B7 O15 1.395014 1_554
B7 O23 1.432006 1_555
B8 O24 1.344257 1_555
B8 O8 1.375979 1_555
B8 O20 1.401666 1_555
B9 O25 1.344257 1_554
B9 O9 1.375979 1_555
B9 O21 1.401666 1_554
B10 O26 1.344257 1_555
B10 O10 1.375979 1_555
B10 O22 1.401666 1_555
B11 O27 1.344257 1_556
B11 O11 1.375979 1_555
B11 O23 1.401666 1_556
H0 O0 0.987794 1_555
H0 O25 1.743577 1_554
H1 O1 0.987794 1_555
H1 O24 1.743577 1_555
H2 O2 0.987794 1_555
H2 O27 1.743577 1_556
H3 O3 0.987794 1_555
H3 O26 1.743577 1_555
H4 O4 0.987794 1_555
H4 O27 1.743577 1_556
H5 O5 0.987794 1_555
H5 O26 1.743577 1_555
H6 O6 0.987794 1_555
H6 O25 1.743577 1_554
H7 O7 0.987794 1_555
H7 O24 1.743577 1_555
