# generated using pymatgen
data_Li4Mn3Sn3(TeO8)2
_symmetry_space_group_name_H-M   'P 1'
_cell_length_a   6.27948509
_cell_length_b   10.87850934
_cell_length_c   12.04659623
_cell_angle_alpha   116.28677079
_cell_angle_beta   74.91097080
_cell_angle_gamma   89.99292606
_symmetry_Int_Tables_number   1
_chemical_formula_structural   Li4Mn3Sn3(TeO8)2
_chemical_formula_sum   'Li8 Mn6 Sn6 Te4 O32'
_cell_volume   706.02366467
_cell_formula_units_Z   2
loop_
 _symmetry_equiv_pos_site_id
 _symmetry_equiv_pos_as_xyz
  1  'x, y, z'
loop_
 _atom_site_type_symbol
 _atom_site_label
 _atom_site_symmetry_multiplicity
 _atom_site_fract_x
 _atom_site_fract_y
 _atom_site_fract_z
 _atom_site_occupancy
  Li  Li0  1  0.55087700  0.77457100  0.89830700  1
  Li  Li1  1  0.05086600  0.27455200  0.89831700  1
  Li  Li2  1  0.50601200  0.49775200  0.98791400  1
  Li  Li3  1  0.00600700  0.99777100  0.98791900  1
  Li  Li4  1  0.75229200  0.25259000  0.49541000  1
  Li  Li5  1  0.25227900  0.75259700  0.49541400  1
  Li  Li6  1  0.29610300  0.37013300  0.40793500  1
  Li  Li7  1  0.79609800  0.87013000  0.40794000  1
  Mn  Mn0  1  0.89456800  0.27405000  0.21064700  1
  Mn  Mn1  1  0.89386200  0.93872800  0.71255000  1
  Mn  Mn2  1  0.39370900  0.93875900  0.71252400  1
  Mn  Mn3  1  0.39456500  0.77404900  0.21064500  1
  Mn  Mn4  1  0.39390400  0.43871100  0.71256300  1
  Mn  Mn5  1  0.89361700  0.43871200  0.71252600  1
  Sn  Sn0  1  0.14212300  0.68822100  0.71593900  1
  Sn  Sn1  1  0.64212400  0.18818300  0.71594300  1
  Sn  Sn2  1  0.14019300  0.52617000  0.21590700  1
  Sn  Sn3  1  0.64018500  0.02620400  0.21591100  1
  Sn  Sn4  1  0.64395500  0.52615200  0.21583800  1
  Sn  Sn5  1  0.14395100  0.02618800  0.21585000  1
  Te  Te0  1  0.75639100  0.56673300  0.48733900  1
  Te  Te1  1  0.25641900  0.06670700  0.48730400  1
  Te  Te2  1  0.00795600  0.63454800  0.98401300  1
  Te  Te3  1  0.50791600  0.13455700  0.98401000  1
  O  O0  1  0.83886700  0.65812400  0.32231900  1
  O  O1  1  0.33888000  0.15814100  0.32227000  1
  O  O2  1  0.94558000  0.39174400  0.10893200  1
  O  O3  1  0.44553100  0.89184400  0.10895500  1
  O  O4  1  0.84254900  0.15951100  0.31538200  1
  O  O5  1  0.34256200  0.65949300  0.31538800  1
  O  O6  1  0.59710500  0.41293600  0.80640600  1
  O  O7  1  0.09706500  0.91302200  0.80644600  1
  O  O8  1  0.44481400  0.40602900  0.10947300  1
  O  O9  1  0.94483100  0.90612000  0.10945600  1
  O  O10  1  0.71149000  0.45405500  0.57688100  1
  O  O11  1  0.21162700  0.95404700  0.57686600  1
  O  O12  1  0.19209300  0.46349500  0.61582000  1
  O  O13  1  0.69211200  0.96347600  0.61583500  1
  O  O14  1  0.07022000  0.44006200  0.85980300  1
  O  O15  1  0.57019300  0.94004700  0.85978100  1
  O  O16  1  0.96763300  0.73504500  0.61042500  1
  O  O17  1  0.46769900  0.23501000  0.61043400  1
  O  O18  1  0.42191900  0.73516300  0.61057400  1
  O  O19  1  0.92187900  0.23514800  0.61060100  1
  O  O20  1  0.04776000  0.44391300  0.35207700  1
  O  O21  1  0.54768800  0.94391500  0.35207600  1
  O  O22  1  0.60049000  0.44378400  0.35190900  1
  O  O23  1  0.10050100  0.94386000  0.35191900  1
  O  O24  1  0.32033700  0.64399800  0.82346900  1
  O  O25  1  0.82035100  0.14396600  0.82347000  1
  O  O26  1  0.85621000  0.64400200  0.82336700  1
  O  O27  1  0.35620500  0.14398000  0.82339800  1
  O  O28  1  0.71042200  0.11704900  0.08844900  1
  O  O29  1  0.21037400  0.61705100  0.08851700  1
  O  O30  1  0.20087200  0.11653600  0.08815900  1
  O  O31  1  0.70092100  0.61650600  0.08816000  1
loop_
_geom_bond_atom_site_label_1
_geom_bond_atom_site_label_2
_geom_bond_distance
_geom_bond_site_symmetry_2
Li0 O15 2.044826 1_555
Li0 O26 2.114491 1_555
Li0 O24 2.114698 1_555
Li0 O3 2.182414 1_556
Li1 O14 2.045102 1_555
Li1 O27 2.114564 1_555
Li1 O25 2.114674 1_455
Li1 O2 2.182025 1_456
Li2 O6 1.876511 1_555
Li2 O31 2.003341 1_556
Li2 O29 2.008578 1_556
Li2 O8 2.070988 1_556
Li3 O7 1.876163 1_555
Li3 O30 2.003140 1_566
Li3 O28 2.008169 1_466
Li3 O9 2.070134 1_456
Li4 O4 1.861384 1_555
Li4 O10 1.948313 1_555
Li4 O17 2.023823 1_555
Li4 O19 2.024398 1_555
Li5 O5 1.861371 1_555
Li5 O11 1.948173 1_555
Li5 O16 2.023858 1_455
Li5 O18 2.024275 1_555
Li6 O1 2.050139 1_555
Li6 O20 2.133850 1_555
Li6 O22 2.135084 1_555
Li6 O12 2.150602 1_555
Li7 O0 2.050291 1_555
Li7 O21 2.134268 1_555
Li7 O23 2.135594 1_655
Li7 O13 2.150715 1_555
Mn0 O2 2.104417 1_555
Mn0 O4 2.104546 1_555
Mn0 O28 2.254106 1_555
Mn0 O30 2.257227 1_655
Mn0 O22 2.301164 1_555
Mn0 O20 2.303895 1_655
Mn1 O16 1.981494 1_555
Mn1 O7 2.004341 1_655
Mn1 O25 2.004895 1_565
Mn1 O13 2.020180 1_555
Mn1 O11 2.285682 1_655
Mn1 O15 2.318954 1_555
Mn2 O18 1.980530 1_555
Mn2 O7 2.002965 1_555
Mn2 O27 2.004615 1_565
Mn2 O13 2.020242 1_555
Mn2 O11 2.284548 1_555
Mn2 O15 2.318789 1_555
Mn3 O5 2.104784 1_555
Mn3 O3 2.105125 1_555
Mn3 O29 2.253903 1_555
Mn3 O31 2.257595 1_555
Mn3 O23 2.301533 1_555
Mn3 O21 2.303652 1_555
Mn4 O17 1.981673 1_555
Mn4 O6 2.004118 1_555
Mn4 O24 2.005332 1_555
Mn4 O12 2.020899 1_555
Mn4 O10 2.285004 1_555
Mn4 O14 2.318960 1_555
Mn5 O19 1.980182 1_555
Mn5 O6 2.002287 1_555
Mn5 O26 2.005207 1_555
Mn5 O12 2.020958 1_655
Mn5 O10 2.284838 1_555
Mn5 O14 2.319284 1_655
O0 Sn2 2.095417 1_655
O0 Sn4 2.095537 1_555
O0 Te0 2.534396 1_555
O1 Sn5 2.095192 1_555
O1 Sn3 2.095195 1_555
O1 Te1 2.534895 1_555
O2 Sn2 2.108044 1_655
O2 Sn4 2.108406 1_555
O3 Sn3 2.107827 1_565
O3 Sn5 2.107893 1_565
O4 Sn5 2.097818 1_655
O4 Sn3 2.099472 1_555
O5 Sn4 2.097867 1_555
O5 Sn2 2.099623 1_555
O6 Sn1 2.173678 1_555
O7 Sn0 2.174133 1_555
O8 Sn2 2.061393 1_555
O8 Sn4 2.065132 1_555
O8 Te3 2.626265 1_554
O9 Sn3 2.061316 1_565
O9 Sn5 2.064991 1_665
O9 Te2 2.627202 1_654
O10 Te0 1.938661 1_555
O11 Te1 1.938681 1_565
O12 Sn0 2.172738 1_555
O13 Sn1 2.172553 1_565
O14 Te2 1.938882 1_555
O15 Te3 1.939132 1_565
O16 Sn0 2.091445 1_655
O16 Te0 2.435288 1_555
O17 Sn1 2.091132 1_555
O17 Te1 2.435630 1_555
O18 Sn0 2.090951 1_555
O18 Te0 2.436971 1_555
O19 Sn1 2.090766 1_555
O19 Te1 2.437368 1_655
O20 Te0 2.075272 1_455
O20 Sn2 2.152449 1_555
O21 Te1 2.074645 1_565
O21 Sn3 2.152687 1_565
O22 Te0 2.075605 1_555
O22 Sn4 2.152303 1_555
O23 Te1 2.075011 1_565
O23 Sn5 2.151960 1_565
O24 Sn0 2.113850 1_555
O24 Te2 2.408274 1_555
O25 Sn1 2.113843 1_555
O25 Te3 2.408272 1_555
O26 Sn0 2.114597 1_655
O26 Te2 2.408333 1_655
O27 Sn1 2.114696 1_555
O27 Te3 2.407687 1_555
O28 Te3 2.069149 1_554
O28 Sn3 2.126137 1_555
O29 Te2 2.069312 1_554
O29 Sn2 2.125679 1_555
O30 Te3 2.070879 1_554
O30 Sn5 2.124353 1_555
O31 Te2 2.070909 1_654
O31 Sn4 2.124259 1_555
