# generated using pymatgen
data_BaYI5
_symmetry_space_group_name_H-M   'P 1'
_cell_length_a   11.74224300
_cell_length_b   13.92138000
_cell_length_c   20.30758156
_cell_angle_alpha   51.23487621
_cell_angle_beta   90.00000000
_cell_angle_gamma   90.00000000
_symmetry_Int_Tables_number   1
_chemical_formula_structural   BaYI5
_chemical_formula_sum   'Ba8 Y8 I40'
_cell_volume   2588.39055929
_cell_formula_units_Z   8
loop_
 _symmetry_equiv_pos_site_id
 _symmetry_equiv_pos_as_xyz
  1  'x, y, z'
loop_
 _atom_site_type_symbol
 _atom_site_label
 _atom_site_symmetry_multiplicity
 _atom_site_fract_x
 _atom_site_fract_y
 _atom_site_fract_z
 _atom_site_occupancy
  Ba  Ba0  1  0.71739400  0.33175700  0.86057200  1
  Ba  Ba1  1  0.73397500  0.79860400  0.46132000  1
  Ba  Ba2  1  0.21739400  0.66824300  0.63942800  1
  Ba  Ba3  1  0.23397500  0.20139600  0.03868000  1
  Ba  Ba4  1  0.76602500  0.79860400  0.96132000  1
  Ba  Ba5  1  0.78260600  0.33175700  0.36057200  1
  Ba  Ba6  1  0.26602500  0.20139600  0.53868000  1
  Ba  Ba7  1  0.28260600  0.66824300  0.13942800  1
  Y  Y0  1  0.19176200  0.21239900  0.80715900  1
  Y  Y1  1  0.22178900  0.79099100  0.33598100  1
  Y  Y2  1  0.72178900  0.20900900  0.16401900  1
  Y  Y3  1  0.69176200  0.78760100  0.69284100  1
  Y  Y4  1  0.30823800  0.21239900  0.30715900  1
  Y  Y5  1  0.27821100  0.79099100  0.83598100  1
  Y  Y6  1  0.77821100  0.20900900  0.66401900  1
  Y  Y7  1  0.80823800  0.78760100  0.19284100  1
  I  I0  1  0.23062600  0.41965900  0.62606200  1
  I  I1  1  0.81850000  0.00940300  0.00755700  1
  I  I2  1  0.78017900  0.44458200  0.63942200  1
  I  I3  1  0.39932500  0.28267900  0.85703300  1
  I  I4  1  0.36797200  0.90219800  0.18219400  1
  I  I5  1  0.02508900  0.88901400  0.20758200  1
  I  I6  1  0.04971100  0.37129400  0.83029200  1
  I  I7  1  0.41036200  0.73610100  0.45357200  1
  I  I8  1  0.04272300  0.72887300  0.46568800  1
  I  I9  1  0.68617900  0.93312500  0.23849700  1
  I  I10  1  0.54971100  0.62870600  0.66970800  1
  I  I11  1  0.18617900  0.06687500  0.26150300  1
  I  I12  1  0.54272300  0.27112700  0.03431200  1
  I  I13  1  0.91036200  0.26389900  0.04642800  1
  I  I14  1  0.89932500  0.71732100  0.64296700  1
  I  I15  1  0.28017900  0.55541800  0.86057800  1
  I  I16  1  0.52508900  0.11098600  0.29241800  1
  I  I17  1  0.86797200  0.09780200  0.31780600  1
  I  I18  1  0.73062600  0.58034100  0.87393800  1
  I  I19  1  0.31850000  0.99059700  0.49244300  1
  I  I20  1  0.68150000  0.00940300  0.50755700  1
  I  I21  1  0.26937400  0.41965900  0.12606200  1
  I  I22  1  0.13202800  0.90219800  0.68219400  1
  I  I23  1  0.47491100  0.88901400  0.70758200  1
  I  I24  1  0.71982100  0.44458200  0.13942200  1
  I  I25  1  0.10067500  0.28267900  0.35703300  1
  I  I26  1  0.08963800  0.73610100  0.95357200  1
  I  I27  1  0.45727700  0.72887300  0.96568800  1
  I  I28  1  0.81382100  0.93312500  0.73849700  1
  I  I29  1  0.45028900  0.37129400  0.33029200  1
  I  I30  1  0.31382100  0.06687500  0.76150300  1
  I  I31  1  0.95727700  0.27112700  0.53431200  1
  I  I32  1  0.58963800  0.26389900  0.54642800  1
  I  I33  1  0.95028900  0.62870600  0.16970800  1
  I  I34  1  0.97491100  0.11098600  0.79241800  1
  I  I35  1  0.63202800  0.09780200  0.81780600  1
  I  I36  1  0.60067500  0.71732100  0.14296700  1
  I  I37  1  0.21982100  0.55541800  0.36057800  1
  I  I38  1  0.18150000  0.99059700  0.99244300  1
  I  I39  1  0.76937400  0.58034100  0.37393800  1
loop_
_geom_bond_atom_site_label_1
_geom_bond_atom_site_label_2
_geom_bond_distance
_geom_bond_site_symmetry_2
Ba0 I18 3.640064 1_555
Ba0 I12 3.693016 1_556
Ba0 I1 3.699145 1_556
Ba0 I2 3.787671 1_555
Ba0 I3 3.805590 1_555
Ba0 I6 3.934970 1_655
Ba0 I13 3.975795 1_556
Ba0 I35 3.988617 1_555
Ba0 I10 3.990555 1_555
Ba1 I17 3.621780 1_565
Ba1 I20 3.650186 1_565
Ba1 I14 3.664750 1_555
Ba1 I9 3.699453 1_555
Ba1 I8 3.739770 1_655
Ba1 I2 3.917088 1_555
Ba1 I7 3.923377 1_555
Ba1 I10 3.956028 1_555
Ba1 I16 4.244279 1_565
Ba1 I39 4.393901 1_555
Ba2 I0 3.640064 1_555
Ba2 I8 3.693016 1_555
Ba2 I19 3.699145 1_555
Ba2 I15 3.787671 1_555
Ba2 I14 3.805590 1_455
Ba2 I10 3.934970 1_555
Ba2 I7 3.975795 1_555
Ba2 I22 3.988617 1_555
Ba2 I6 3.990555 1_555
Ba3 I4 3.621780 1_545
Ba3 I38 3.650186 1_544
Ba3 I3 3.664750 1_554
Ba3 I11 3.699453 1_555
Ba3 I12 3.739770 1_555
Ba3 I15 3.917088 1_554
Ba3 I13 3.923377 1_455
Ba3 I6 3.956028 1_554
Ba3 I5 4.244279 1_545
Ba3 I21 4.393901 1_555
Ba4 I35 3.621780 1_565
Ba4 I1 3.650186 1_566
Ba4 I36 3.664750 1_556
Ba4 I28 3.699453 1_555
Ba4 I27 3.739770 1_555
Ba4 I24 3.917088 1_556
Ba4 I26 3.923377 1_655
Ba4 I33 3.956028 1_556
Ba4 I34 4.244279 1_565
Ba4 I18 4.393901 1_555
Ba5 I39 3.640064 1_555
Ba5 I31 3.693016 1_555
Ba5 I20 3.699145 1_555
Ba5 I24 3.787671 1_555
Ba5 I25 3.805590 1_655
Ba5 I29 3.934970 1_555
Ba5 I32 3.975795 1_555
Ba5 I17 3.988617 1_555
Ba5 I33 3.990555 1_555
Ba6 I22 3.621780 1_545
Ba6 I19 3.650186 1_545
Ba6 I25 3.664750 1_555
Ba6 I30 3.699453 1_555
Ba6 I31 3.739770 1_455
Ba6 I37 3.917088 1_555
Ba6 I32 3.923377 1_555
Ba6 I29 3.956028 1_555
Ba6 I23 4.244279 1_545
Ba6 I0 4.393901 1_555
Ba7 I21 3.640064 1_555
Ba7 I27 3.693016 1_554
Ba7 I38 3.699145 1_554
Ba7 I37 3.787671 1_555
Ba7 I36 3.805590 1_555
Ba7 I33 3.934970 1_455
Ba7 I26 3.975795 1_554
Ba7 I4 3.988617 1_555
Ba7 I29 3.990555 1_555
I0 Y0 2.961499 1_555
I0 I30 3.965337 1_555
I0 I8 4.055767 1_555
I0 I7 4.099654 1_555
I1 Y7 3.026135 1_545
I1 I35 3.901157 1_554
I1 I36 4.078681 1_545
I1 I5 4.082686 1_645
I1 I34 4.089470 1_554
I1 I13 4.223888 1_555
I2 Y6 2.992291 1_555
I2 I35 4.189916 1_555
I3 Y0 3.027240 1_555
I3 I38 4.078681 1_545
I3 I35 4.158425 1_555
I4 Y1 3.006991 1_555
I4 I9 4.008778 1_555
I4 I5 4.048631 1_555
I5 Y7 3.015923 1_455
I5 Y1 3.088692 1_555
I5 I9 4.134121 1_455
I5 I8 4.225326 1_555
I6 Y0 3.032707 1_555
I7 Y1 2.984010 1_555
I8 Y1 3.042140 1_555
I9 Y7 3.061084 1_555
I9 Y2 3.152619 1_565
I10 Y3 3.032707 1_555
I10 I7 3.995012 1_555
I10 I2 4.030674 1_555
I10 I3 4.224572 1_555
I11 Y4 3.061084 1_555
I11 Y1 3.152619 1_545
I11 I5 3.781959 1_545
I11 I21 3.965337 1_555
I11 I17 4.008778 1_455
I11 I4 4.126756 1_545
I11 I16 4.134121 1_555
I11 I8 4.211801 1_545
I12 Y2 3.042140 1_555
I12 I3 3.885467 1_554
I12 I18 4.055767 1_554
I12 I9 4.211801 1_545
I12 I16 4.225326 1_555
I13 Y2 2.984010 1_555
I13 I6 3.995012 1_654
I13 I18 4.099654 1_554
I14 Y3 3.027240 1_555
I14 I8 3.885467 1_655
I14 I20 4.078681 1_565
I14 I2 4.089165 1_555
I14 I22 4.158425 1_655
I14 I6 4.224572 1_655
I15 Y5 2.992291 1_555
I15 I6 4.030674 1_555
I15 I3 4.089165 1_555
I15 I22 4.189916 1_555
I16 Y4 3.015923 1_555
I16 Y2 3.088692 1_555
I16 I9 3.781959 1_545
I16 I17 4.048631 1_555
I16 I19 4.082686 1_545
I16 I20 4.089470 1_555
I17 Y2 3.006991 1_555
I17 I20 3.901157 1_555
I17 I9 4.126756 1_545
I17 I25 4.158425 1_655
I17 I24 4.189916 1_555
I18 Y3 2.961499 1_555
I18 I28 3.965337 1_555
I19 Y4 3.026135 1_565
I19 I22 3.901157 1_555
I19 I25 4.078681 1_565
I19 I23 4.089470 1_555
I19 I7 4.223888 1_555
I20 Y3 3.026135 1_545
I20 I23 4.082686 1_545
I20 I32 4.223888 1_555
I21 Y4 2.961499 1_555
I21 I27 4.055767 1_554
I21 I26 4.099654 1_554
I22 Y5 3.006991 1_555
I22 I28 4.008778 1_455
I22 I23 4.048631 1_555
I22 I30 4.126756 1_565
I23 Y3 3.015923 1_555
I23 Y5 3.088692 1_555
I23 I30 3.781959 1_565
I23 I28 4.134121 1_555
I23 I27 4.225326 1_555
I24 Y2 2.992291 1_555
I24 I33 4.030674 1_555
I24 I36 4.089165 1_555
I25 Y4 3.027240 1_555
I25 I31 3.885467 1_455
I25 I37 4.089165 1_555
I25 I33 4.224572 1_455
I26 Y5 2.984010 1_555
I26 I33 3.995012 1_456
I26 I38 4.223888 1_555
I27 Y5 3.042140 1_555
I27 I36 3.885467 1_556
I27 I30 4.211801 1_565
I28 Y3 3.061084 1_555
I28 Y6 3.152619 1_565
I28 I34 3.781959 1_565
I28 I35 4.126756 1_565
I28 I31 4.211801 1_565
I29 Y4 3.032707 1_555
I29 I32 3.995012 1_555
I29 I37 4.030674 1_555
I29 I36 4.224572 1_555
I30 Y0 3.061084 1_555
I30 Y5 3.152619 1_545
I30 I35 4.008778 1_555
I30 I34 4.134121 1_455
I31 Y6 3.042140 1_555
I31 I39 4.055767 1_555
I31 I34 4.225326 1_555
I32 Y6 2.984010 1_555
I32 I39 4.099654 1_555
I33 Y7 3.032707 1_555
I34 Y0 3.015923 1_655
I34 Y6 3.088692 1_555
I34 I35 4.048631 1_555
I34 I38 4.082686 1_645
I35 Y6 3.006991 1_555
I36 Y7 3.027240 1_555
I36 I4 4.158425 1_555
I37 Y1 2.992291 1_555
I37 I4 4.189916 1_555
I38 Y0 3.026135 1_565
I38 I4 3.901157 1_556
I38 I5 4.089470 1_556
I39 Y7 2.961499 1_555
I39 I9 3.965337 1_555
