# generated using pymatgen
data_Li2V(SO4)2
_symmetry_space_group_name_H-M   'P 1'
_cell_length_a   9.33789800
_cell_length_b   9.45596000
_cell_length_c   13.96060000
_cell_angle_alpha   90.00000000
_cell_angle_beta   90.00000000
_cell_angle_gamma   90.00000000
_symmetry_Int_Tables_number   1
_chemical_formula_structural   Li2V(SO4)2
_chemical_formula_sum   'Li16 V8 S16 O64'
_cell_volume   1232.70408728
_cell_formula_units_Z   8
loop_
 _symmetry_equiv_pos_site_id
 _symmetry_equiv_pos_as_xyz
  1  'x, y, z'
loop_
 _atom_site_type_symbol
 _atom_site_label
 _atom_site_symmetry_multiplicity
 _atom_site_fract_x
 _atom_site_fract_y
 _atom_site_fract_z
 _atom_site_occupancy
  Li  Li0  1  0.77984700  0.96649800  0.37378200  1
  Li  Li1  1  0.72015300  0.96649800  0.87378200  1
  Li  Li2  1  0.04553500  0.77581100  0.37239100  1
  Li  Li3  1  0.45446500  0.77581100  0.87239100  1
  Li  Li4  1  0.95446500  0.72418900  0.87239100  1
  Li  Li5  1  0.54553500  0.72418900  0.37239100  1
  Li  Li6  1  0.27984700  0.53350200  0.37378200  1
  Li  Li7  1  0.22015300  0.53350200  0.87378200  1
  Li  Li8  1  0.77984700  0.46649800  0.12621800  1
  Li  Li9  1  0.72015300  0.46649800  0.62621800  1
  Li  Li10  1  0.45446500  0.27581100  0.62760900  1
  Li  Li11  1  0.04553500  0.27581100  0.12760900  1
  Li  Li12  1  0.54553500  0.22418900  0.12760900  1
  Li  Li13  1  0.95446500  0.22418900  0.62760900  1
  Li  Li14  1  0.22015300  0.03350200  0.62621800  1
  Li  Li15  1  0.27984700  0.03350200  0.12621800  1
  V  V0  1  0.89763900  0.86103900  0.12269300  1
  V  V1  1  0.60236100  0.86103900  0.62269300  1
  V  V2  1  0.39763900  0.63896100  0.12269300  1
  V  V3  1  0.10236100  0.63896100  0.62269300  1
  V  V4  1  0.89763900  0.36103900  0.37730700  1
  V  V5  1  0.60236100  0.36103900  0.87730700  1
  V  V6  1  0.39763900  0.13896100  0.37730700  1
  V  V7  1  0.10236100  0.13896100  0.87730700  1
  S  S0  1  0.92984300  0.92539000  0.72800900  1
  S  S1  1  0.57015700  0.92539000  0.22800900  1
  S  S2  1  0.31230400  0.83944000  0.49047600  1
  S  S3  1  0.18769600  0.83944000  0.99047600  1
  S  S4  1  0.81230400  0.66056000  0.49047600  1
  S  S5  1  0.68769600  0.66056000  0.99047600  1
  S  S6  1  0.07015700  0.57461000  0.22800900  1
  S  S7  1  0.42984300  0.57461000  0.72800900  1
  S  S8  1  0.57015700  0.42539000  0.27199100  1
  S  S9  1  0.92984300  0.42539000  0.77199100  1
  S  S10  1  0.31230400  0.33944000  0.00952400  1
  S  S11  1  0.18769600  0.33944000  0.50952400  1
  S  S12  1  0.81230400  0.16056000  0.00952400  1
  S  S13  1  0.68769600  0.16056000  0.50952400  1
  S  S14  1  0.42984300  0.07461000  0.77199100  1
  S  S15  1  0.07015700  0.07461000  0.27199100  1
  O  O0  1  0.29937400  0.99520000  0.47719400  1
  O  O1  1  0.20062600  0.99520000  0.97719400  1
  O  O2  1  0.00308700  0.98287700  0.34523300  1
  O  O3  1  0.49691300  0.98287700  0.84523300  1
  O  O4  1  0.53897300  0.97404600  0.32861600  1
  O  O5  1  0.96102700  0.97404600  0.82861600  1
  O  O6  1  0.76980900  0.92689400  0.72296800  1
  O  O7  1  0.73019100  0.92689400  0.22296800  1
  O  O8  1  0.26844300  0.81284700  0.08098300  1
  O  O9  1  0.23155700  0.81284700  0.58098300  1
  O  O10  1  0.03477200  0.79524600  0.00266100  1
  O  O11  1  0.46522800  0.79524600  0.50266100  1
  O  O12  1  0.98570700  0.77778600  0.72236800  1
  O  O13  1  0.51429300  0.77778600  0.22236800  1
  O  O14  1  0.25508900  0.75879100  0.40751300  1
  O  O15  1  0.24491100  0.75879100  0.90751300  1
  O  O16  1  0.75508900  0.74120900  0.40751300  1
  O  O17  1  0.74491100  0.74120900  0.90751300  1
  O  O18  1  0.01429300  0.72221400  0.22236800  1
  O  O19  1  0.48570700  0.72221400  0.72236800  1
  O  O20  1  0.96522800  0.70475400  0.50266100  1
  O  O21  1  0.53477200  0.70475400  0.00266100  1
  O  O22  1  0.76844300  0.68715300  0.08098300  1
  O  O23  1  0.73155700  0.68715300  0.58098300  1
  O  O24  1  0.23019100  0.57310600  0.22296800  1
  O  O25  1  0.26980900  0.57310600  0.72296800  1
  O  O26  1  0.46102700  0.52595400  0.82861600  1
  O  O27  1  0.03897300  0.52595400  0.32861600  1
  O  O28  1  0.50308700  0.51712300  0.34523300  1
  O  O29  1  0.99691300  0.51712300  0.84523300  1
  O  O30  1  0.79937400  0.50480000  0.47719400  1
  O  O31  1  0.70062600  0.50480000  0.97719400  1
  O  O32  1  0.29937400  0.49520000  0.02280600  1
  O  O33  1  0.20062600  0.49520000  0.52280600  1
  O  O34  1  0.49691300  0.48287700  0.65476700  1
  O  O35  1  0.00308700  0.48287700  0.15476700  1
  O  O36  1  0.53897300  0.47404600  0.17138400  1
  O  O37  1  0.96102700  0.47404600  0.67138400  1
  O  O38  1  0.73019100  0.42689400  0.27703200  1
  O  O39  1  0.76980900  0.42689400  0.77703200  1
  O  O40  1  0.26844300  0.31284700  0.41901700  1
  O  O41  1  0.23155700  0.31284700  0.91901700  1
  O  O42  1  0.46522800  0.29524600  0.99733900  1
  O  O43  1  0.03477200  0.29524600  0.49733900  1
  O  O44  1  0.51429300  0.27778600  0.27763200  1
  O  O45  1  0.98570700  0.27778600  0.77763200  1
  O  O46  1  0.25508900  0.25879100  0.09248700  1
  O  O47  1  0.24491100  0.25879100  0.59248700  1
  O  O48  1  0.75508900  0.24120900  0.09248700  1
  O  O49  1  0.74491100  0.24120900  0.59248700  1
  O  O50  1  0.48570700  0.22221400  0.77763200  1
  O  O51  1  0.01429300  0.22221400  0.27763200  1
  O  O52  1  0.53477200  0.20475400  0.49733900  1
  O  O53  1  0.96522800  0.20475400  0.99733900  1
  O  O54  1  0.76844300  0.18715300  0.41901700  1
  O  O55  1  0.73155700  0.18715300  0.91901700  1
  O  O56  1  0.26980900  0.07310600  0.77703200  1
  O  O57  1  0.23019100  0.07310600  0.27703200  1
  O  O58  1  0.46102700  0.02595400  0.67138400  1
  O  O59  1  0.03897300  0.02595400  0.17138400  1
  O  O60  1  0.99691300  0.01712300  0.65476700  1
  O  O61  1  0.50308700  0.01712300  0.15476700  1
  O  O62  1  0.79937400  0.00480000  0.02280600  1
  O  O63  1  0.70062600  0.00480000  0.52280600  1
loop_
_geom_bond_atom_site_label_1
_geom_bond_atom_site_label_2
_geom_bond_distance
_geom_bond_site_symmetry_2
Li0 O2 2.127995 1_655
Li0 O54 2.182577 1_565
Li0 O7 2.188192 1_555
Li0 O16 2.193964 1_555
Li0 O63 2.237577 1_565
Li0 O4 2.337057 1_555
Li1 O3 2.127995 1_555
Li1 O55 2.182577 1_565
Li1 O6 2.188192 1_555
Li1 O17 2.193964 1_555
Li1 O62 2.237577 1_566
Li1 O5 2.337057 1_555
Li2 O14 2.023700 1_555
Li2 O2 2.033385 1_555
Li2 O20 2.078772 1_455
Li2 O18 2.174517 1_555
Li2 O27 2.441165 1_555
Li2 O16 2.775475 1_455
Li3 O15 2.023700 1_555
Li3 O3 2.033385 1_555
Li3 O21 2.078772 1_556
Li3 O19 2.174517 1_555
Li3 O26 2.441165 1_555
Li3 O17 2.775475 1_555
Li4 O17 2.023700 1_555
Li4 O29 2.033385 1_555
Li4 O10 2.078772 1_656
Li4 O12 2.174517 1_555
Li4 O5 2.441165 1_555
Li4 O15 2.775475 1_655
Li5 O16 2.023700 1_555
Li5 O28 2.033385 1_555
Li5 O11 2.078772 1_555
Li5 O13 2.174517 1_555
Li5 O4 2.441165 1_555
Li5 O14 2.775475 1_555
Li6 O28 2.127995 1_555
Li6 O40 2.182577 1_555
Li6 O24 2.188192 1_555
Li6 O14 2.193964 1_555
Li6 O33 2.237577 1_555
Li6 O27 2.337057 1_555
Li7 O29 2.127995 1_455
Li7 O41 2.182577 1_555
Li7 O25 2.188192 1_555
Li7 O15 2.193964 1_555
Li7 O32 2.237577 1_556
Li7 O26 2.337057 1_555
Li8 O35 2.127995 1_655
Li8 O22 2.182577 1_555
Li8 O38 2.188192 1_555
Li8 O48 2.193964 1_555
Li8 O31 2.237577 1_554
Li8 O36 2.337057 1_555
Li9 O34 2.127995 1_555
Li9 O23 2.182577 1_555
Li9 O39 2.188192 1_555
Li9 O49 2.193964 1_555
Li9 O30 2.237577 1_555
Li9 O37 2.337057 1_555
Li10 O47 2.023700 1_555
Li10 O34 2.033385 1_555
Li10 O52 2.078772 1_555
Li10 O50 2.174517 1_555
Li10 O58 2.441165 1_555
Li10 O49 2.775475 1_555
Li11 O46 2.023700 1_555
Li11 O35 2.033385 1_555
Li11 O53 2.078772 1_454
Li11 O51 2.174517 1_555
Li11 O59 2.441165 1_555
Li11 O48 2.775475 1_455
Li12 O48 2.023700 1_555
Li12 O61 2.033385 1_555
Li12 O42 2.078772 1_554
Li12 O44 2.174517 1_555
Li12 O36 2.441165 1_555
Li12 O46 2.775475 1_555
Li13 O49 2.023700 1_555
Li13 O60 2.033385 1_555
Li13 O43 2.078772 1_655
Li13 O45 2.174517 1_555
Li13 O37 2.441165 1_555
Li13 O47 2.775475 1_655
Li14 O60 2.127995 1_455
Li14 O9 2.182577 1_545
Li14 O56 2.188192 1_555
Li14 O47 2.193964 1_555
Li14 O0 2.237577 1_545
Li14 O58 2.337057 1_555
Li15 O61 2.127995 1_555
Li15 O8 2.182577 1_545
Li15 O57 2.188192 1_555
Li15 O46 2.193964 1_555
Li15 O1 2.237577 1_544
Li15 O59 2.337057 1_555
O0 S2 1.489388 1_555
O0 V6 2.152792 1_565
O1 S3 1.489388 1_555
O1 V7 2.152792 1_565
O2 S15 1.479925 1_565
O3 S14 1.479925 1_565
O4 S1 1.506384 1_555
O4 V6 2.153059 1_565
O5 S0 1.506384 1_555
O5 V7 2.153059 1_665
O6 S0 1.496105 1_555
O6 V1 2.189151 1_555
O7 S1 1.496105 1_555
O7 V0 2.189151 1_555
O8 S3 1.492740 1_554
O8 V2 2.120873 1_555
O9 S2 1.492740 1_555
O9 V3 2.120873 1_555
O10 S3 1.497574 1_554
O10 V0 2.198830 1_455
O11 S2 1.497574 1_555
O11 V1 2.198830 1_555
O12 S0 1.492115 1_555
O12 V3 2.201400 1_655
O13 S1 1.492115 1_555
O13 V2 2.201400 1_555
O14 S2 1.486095 1_555
O15 S3 1.486095 1_555
O16 S4 1.486095 1_555
O17 S5 1.486095 1_555
O18 S6 1.492115 1_555
O18 V0 2.201400 1_455
O19 S7 1.492115 1_555
O19 V1 2.201400 1_555
O20 S4 1.497574 1_555
O20 V3 2.198830 1_655
O21 S5 1.497574 1_554
O21 V2 2.198830 1_555
O22 S5 1.492740 1_554
O22 V0 2.120873 1_555
O23 S4 1.492740 1_555
O23 V1 2.120873 1_555
O24 S6 1.496105 1_555
O24 V2 2.189151 1_555
O25 S7 1.496105 1_555
O25 V3 2.189151 1_555
O26 S7 1.506384 1_555
O26 V5 2.153059 1_555
O27 S6 1.506384 1_555
O27 V4 2.153059 1_455
O28 S8 1.479925 1_555
O29 S9 1.479925 1_555
O30 S4 1.489388 1_555
O30 V4 2.152792 1_555
O31 S5 1.489388 1_555
O31 V5 2.152792 1_555
O32 S10 1.489388 1_555
O32 V2 2.152792 1_555
O33 S11 1.489388 1_555
O33 V3 2.152792 1_555
O34 S7 1.479925 1_555
O35 S6 1.479925 1_555
O36 S8 1.506384 1_555
O36 V2 2.153059 1_555
O37 S9 1.506384 1_555
O37 V3 2.153059 1_655
O38 S8 1.496105 1_555
O38 V4 2.189151 1_555
O39 S9 1.496105 1_555
O39 V5 2.189151 1_555
O40 S11 1.492740 1_555
O40 V6 2.120873 1_555
O41 S10 1.492740 1_556
O41 V7 2.120873 1_555
O42 S10 1.497574 1_556
O42 V5 2.198830 1_555
O43 S11 1.497574 1_555
O43 V4 2.198830 1_455
O44 S8 1.492115 1_555
O44 V6 2.201400 1_555
O45 S9 1.492115 1_555
O45 V7 2.201400 1_655
O46 S10 1.486095 1_555
O47 S11 1.486095 1_555
O48 S12 1.486095 1_555
O49 S13 1.486095 1_555
O50 S14 1.492115 1_555
O50 V5 2.201400 1_555
O51 S15 1.492115 1_555
O51 V4 2.201400 1_455
O52 S13 1.497574 1_555
O52 V6 2.198830 1_555
O53 S12 1.497574 1_556
O53 V7 2.198830 1_655
O54 S13 1.492740 1_555
O54 V4 2.120873 1_555
O55 S12 1.492740 1_556
O55 V5 2.120873 1_555
O56 S14 1.496105 1_555
O56 V7 2.189151 1_555
O57 S15 1.496105 1_555
O57 V6 2.189151 1_555
O58 S14 1.506384 1_555
O58 V1 2.153059 1_545
O59 S15 1.506384 1_555
O59 V0 2.153059 1_445
O60 S0 1.479925 1_545
O61 S1 1.479925 1_545
O62 S12 1.489388 1_555
O62 V0 2.152792 1_545
O63 S13 1.489388 1_555
O63 V1 2.152792 1_545
