# generated using pymatgen
data_Li4Mn3Fe(BO3)4
_symmetry_space_group_name_H-M   'P 1'
_cell_length_a   5.25858800
_cell_length_b   9.08387012
_cell_length_c   10.48570199
_cell_angle_alpha   88.44387692
_cell_angle_beta   88.87190147
_cell_angle_gamma   89.73099388
_symmetry_Int_Tables_number   1
_chemical_formula_structural   Li4Mn3Fe(BO3)4
_chemical_formula_sum   'Li8 Mn6 Fe2 B8 O24'
_cell_volume   500.59836899
_cell_formula_units_Z   2
loop_
 _symmetry_equiv_pos_site_id
 _symmetry_equiv_pos_as_xyz
  1  'x, y, z'
loop_
 _atom_site_type_symbol
 _atom_site_label
 _atom_site_symmetry_multiplicity
 _atom_site_fract_x
 _atom_site_fract_y
 _atom_site_fract_z
 _atom_site_occupancy
  Li  Li0  1  0.14701000  0.17416900  0.66726400  1
  Li  Li1  1  0.18688100  0.16076900  0.16747800  1
  Li  Li2  1  0.32115000  0.33167800  0.41777900  1
  Li  Li3  1  0.33655700  0.32544400  0.91754600  1
  Li  Li4  1  0.64591000  0.67435800  0.66836400  1
  Li  Li5  1  0.68783100  0.66057500  0.16807900  1
  Li  Li6  1  0.82138900  0.83147400  0.41715600  1
  Li  Li7  1  0.83652000  0.82573000  0.91729800  1
  Mn  Mn0  1  0.17777100  0.49860400  0.13319100  1
  Mn  Mn1  1  0.33106500  0.66421600  0.38526200  1
  Mn  Mn2  1  0.33066300  0.99693300  0.88216100  1
  Mn  Mn3  1  0.66015000  0.33856600  0.63101200  1
  Mn  Mn4  1  0.67778200  0.99941900  0.13393800  1
  Mn  Mn5  1  0.83110700  0.49829600  0.88306000  1
  Fe  Fe0  1  0.15406000  0.84092100  0.63286600  1
  Fe  Fe1  1  0.83821800  0.16270300  0.38224500  1
  B  B0  1  0.17406200  0.82953300  0.12635200  1
  B  B1  1  0.15737200  0.50290800  0.62652000  1
  B  B2  1  0.33424400  0.99935100  0.37801500  1
  B  B3  1  0.32729600  0.66723700  0.87475900  1
  B  B4  1  0.67374200  0.32933800  0.12682700  1
  B  B5  1  0.66020600  0.99976600  0.62425700  1
  B  B6  1  0.83654400  0.49601400  0.37523300  1
  B  B7  1  0.82750700  0.16697400  0.87532700  1
  O  O0  1  0.09663500  0.48096400  0.34529700  1
  O  O1  1  0.08899400  0.17936500  0.86072100  1
  O  O2  1  0.17233600  0.78861400  0.84345100  1
  O  O3  1  0.19373600  0.87687300  0.41871300  1
  O  O4  1  0.21692900  0.13594400  0.36281600  1
  O  O5  1  0.21784400  0.53473000  0.91778800  1
  O  O6  1  0.26655600  0.36513200  0.61109200  1
  O  O7  1  0.28851100  0.96554900  0.09598200  1
  O  O8  1  0.30180500  0.62945300  0.59764000  1
  O  O9  1  0.32357200  0.71074500  0.16760300  1
  O  O10  1  0.41412200  0.31385400  0.11197000  1
  O  O11  1  0.40574500  0.01114500  0.66360200  1
  O  O12  1  0.59442600  0.98652700  0.34834700  1
  O  O13  1  0.58863500  0.68019600  0.86113400  1
  O  O14  1  0.67286200  0.28869200  0.84445600  1
  O  O15  1  0.69506200  0.37297400  0.41569000  1
  O  O16  1  0.72331100  0.63341200  0.36219800  1
  O  O17  1  0.71700100  0.03462200  0.91761000  1
  O  O18  1  0.78790400  0.46531300  0.09575200  1
  O  O19  1  0.77425500  0.86220900  0.61231500  1
  O  O20  1  0.80298900  0.12596200  0.59435600  1
  O  O21  1  0.82314300  0.21068900  0.16834700  1
  O  O22  1  0.91409900  0.81456300  0.11205000  1
  O  O23  1  0.90389100  0.51689900  0.66668200  1
loop_
_geom_bond_atom_site_label_1
_geom_bond_atom_site_label_2
_geom_bond_distance
_geom_bond_site_symmetry_2
Li0 O6 1.921304 1_555
Li0 O11 2.006937 1_555
Li0 O20 2.031995 1_455
Li0 O1 2.047179 1_555
Li1 O10 1.909124 1_555
Li1 O21 1.963597 1_455
Li1 O7 2.009964 1_545
Li1 O4 2.063612 1_555
Li2 O0 1.942895 1_555
Li2 O4 1.967516 1_555
Li2 O15 2.003028 1_555
Li2 O6 2.072031 1_555
Li3 O14 1.944573 1_555
Li3 O1 1.974928 1_555
Li3 O5 1.998262 1_555
Li3 O10 2.086700 1_556
Li4 O19 1.911411 1_555
Li4 O23 1.966924 1_555
Li4 O8 2.016646 1_555
Li4 O13 2.039852 1_555
Li5 O22 1.913383 1_555
Li5 O9 1.966945 1_555
Li5 O18 2.011670 1_555
Li5 O16 2.055746 1_555
Li6 O12 1.972759 1_555
Li6 O16 1.977835 1_555
Li6 O3 2.003344 1_655
Li6 O19 2.082657 1_555
Li7 O2 1.945889 1_655
Li7 O13 1.970384 1_555
Li7 O17 1.996189 1_565
Li7 O22 2.090000 1_556
Mn0 O10 2.097751 1_555
Mn0 O18 2.119585 1_455
Mn0 O9 2.119939 1_555
Mn0 O0 2.257913 1_555
Mn0 O5 2.279311 1_554
Mn1 O16 2.090447 1_555
Mn1 O3 2.095214 1_555
Mn1 O0 2.131631 1_555
Mn1 O8 2.243076 1_555
Mn1 O9 2.310869 1_555
Mn2 O1 2.093581 1_565
Mn2 O17 2.103788 1_565
Mn2 O2 2.123374 1_555
Mn2 O7 2.259107 1_556
Mn2 O11 2.318066 1_565
Mn3 O6 2.096502 1_555
Mn3 O20 2.111174 1_555
Mn3 O23 2.116192 1_555
Mn3 O14 2.273630 1_555
Mn3 O15 2.274853 1_555
Mn4 O22 2.099240 1_555
Mn4 O21 2.111836 1_565
Mn4 O7 2.118485 1_555
Mn4 O12 2.282053 1_555
Mn4 O17 2.287577 1_564
Mn5 O13 2.092855 1_555
Mn5 O5 2.102394 1_655
Mn5 O14 2.133447 1_555
Mn5 O18 2.249374 1_556
Mn5 O23 2.295307 1_555
Fe0 O19 2.020853 1_455
Fe0 O11 2.075968 1_565
Fe0 O8 2.107918 1_555
Fe0 O2 2.249843 1_555
Fe0 O3 2.266058 1_555
Fe1 O4 2.012156 1_655
Fe1 O15 2.085800 1_555
Fe1 O12 2.097409 1_545
Fe1 O20 2.244218 1_555
Fe1 O21 2.276036 1_555
B0 O22 1.385894 1_455
B0 O9 1.396302 1_555
B0 O7 1.402953 1_555
B1 O6 1.386638 1_555
B1 O23 1.396236 1_455
B1 O8 1.403636 1_555
B2 O4 1.389781 1_565
B2 O3 1.391181 1_555
B2 O12 1.402142 1_555
B3 O13 1.384114 1_555
B3 O5 1.396591 1_555
B3 O2 1.403528 1_555
B4 O10 1.385383 1_555
B4 O21 1.395865 1_555
B4 O18 1.403439 1_555
B5 O19 1.391130 1_555
B5 O11 1.396673 1_565
B5 O20 1.398379 1_565
B6 O16 1.384906 1_555
B6 O15 1.397257 1_555
B6 O0 1.404111 1_655
B7 O1 1.385323 1_655
B7 O17 1.395411 1_555
B7 O14 1.403956 1_555
