# generated using pymatgen
data_Li3Fe(PO4)2
_symmetry_space_group_name_H-M   'P 1'
_cell_length_a   8.74233100
_cell_length_b   8.75059846
_cell_length_c   9.20292301
_cell_angle_alpha   87.82702347
_cell_angle_beta   87.34893253
_cell_angle_gamma   66.62851832
_symmetry_Int_Tables_number   1
_chemical_formula_structural   Li3Fe(PO4)2
_chemical_formula_sum   'Li12 Fe4 P8 O32'
_cell_volume   645.42663508
_cell_formula_units_Z   4
loop_
 _symmetry_equiv_pos_site_id
 _symmetry_equiv_pos_as_xyz
  1  'x, y, z'
loop_
 _atom_site_type_symbol
 _atom_site_label
 _atom_site_symmetry_multiplicity
 _atom_site_fract_x
 _atom_site_fract_y
 _atom_site_fract_z
 _atom_site_occupancy
  Li  Li0  1  0.64817900  0.86606400  0.78411500  1
  Li  Li1  1  0.87786700  0.63540900  0.29137100  1
  Li  Li2  1  0.95603600  0.15490600  0.45144100  1
  Li  Li3  1  0.93120900  0.10464200  0.76897300  1
  Li  Li4  1  0.41807500  0.57919100  0.76031900  1
  Li  Li5  1  0.56426900  0.43665900  0.24683400  1
  Li  Li6  1  0.10421600  0.89505900  0.23488400  1
  Li  Li7  1  0.04005000  0.84230900  0.53762700  1
  Li  Li8  1  0.86336600  0.04489500  0.03440700  1
  Li  Li9  1  0.12143100  0.39711900  0.66723500  1
  Li  Li10  1  0.36818600  0.13973700  0.23505100  1
  Li  Li11  1  0.29026300  0.11088800  0.89113900  1
  Fe  Fe0  1  0.75263600  0.50031000  0.91191300  1
  Fe  Fe1  1  0.49381900  0.76248900  0.40967200  1
  Fe  Fe2  1  0.50742600  0.23343400  0.59495000  1
  Fe  Fe3  1  0.23466700  0.50488900  0.09166900  1
  P  P0  1  0.98671800  0.71139900  0.92904500  1
  P  P1  1  0.71080200  0.98313800  0.43210700  1
  P  P2  1  0.75610400  0.42623400  0.57064100  1
  P  P3  1  0.41766000  0.76770300  0.07202100  1
  P  P4  1  0.57132200  0.23960900  0.92676500  1
  P  P5  1  0.23792800  0.56899700  0.42989500  1
  P  P6  1  0.28380700  0.00983500  0.57601100  1
  P  P7  1  0.01506300  0.27750900  0.07766300  1
  O  O0  1  0.96590300  0.88754700  0.88092300  1
  O  O1  1  0.88656100  0.97419600  0.38921900  1
  O  O2  1  0.84658600  0.67035200  0.86056300  1
  O  O3  1  0.68607700  0.83324800  0.36899400  1
  O  O4  1  0.94321700  0.37709500  0.54752700  1
  O  O5  1  0.36568400  0.95431000  0.05452800  1
  O  O6  1  0.04452100  0.26244200  0.90885800  1
  O  O7  1  0.31420700  0.01882700  0.40739800  1
  O  O8  1  0.42239100  0.83891500  0.62342200  1
  O  O9  1  0.84573800  0.43367800  0.10555800  1
  O  O10  1  0.52173500  0.66812400  0.93695300  1
  O  O11  1  0.65395500  0.52769500  0.43869300  1
  O  O12  1  0.67990200  0.52629100  0.70933300  1
  O  O13  1  0.52842000  0.69139500  0.20549600  1
  O  O14  1  0.73117800  0.25913300  0.58127100  1
  O  O15  1  0.26098600  0.72671800  0.09365000  1
  O  O16  1  0.74299500  0.25689900  0.91502200  1
  O  O17  1  0.26720400  0.73402800  0.41756300  1
  O  O18  1  0.46810400  0.32621200  0.79242100  1
  O  O19  1  0.31642600  0.46392000  0.29429300  1
  O  O20  1  0.33188600  0.46367900  0.56385100  1
  O  O21  1  0.47402600  0.34335900  0.06128300  1
  O  O22  1  0.16033000  0.57337700  0.88064400  1
  O  O23  1  0.56926700  0.15174800  0.38123800  1
  O  O24  1  0.67989600  0.98486000  0.60222300  1
  O  O25  1  0.98229500  0.68722800  0.09941500  1
  O  O26  1  0.59982300  0.05710000  0.93850700  1
  O  O27  1  0.05054900  0.62076100  0.45315600  1
  O  O28  1  0.30965700  0.15340200  0.65555400  1
  O  O29  1  0.16040600  0.31383700  0.14068100  1
  O  O30  1  0.10607900  0.01893100  0.61164800  1
  O  O31  1  0.00027800  0.12408400  0.15313600  1
loop_
_geom_bond_atom_site_label_1
_geom_bond_atom_site_label_2
_geom_bond_distance
_geom_bond_site_symmetry_2
Li0 O24 2.003342 1_555
Li0 O2 2.025170 1_555
Li0 O26 2.134464 1_565
Li0 O8 2.609308 1_555
Li0 O10 2.718636 1_555
Li1 O3 1.999680 1_555
Li1 O25 2.068406 1_555
Li1 O27 2.133587 1_655
Li1 O9 2.604989 1_555
Li1 O11 2.771261 1_555
Li2 O1 2.014999 1_545
Li2 O30 2.029225 1_655
Li2 O4 2.126755 1_555
Li2 O14 2.136969 1_555
Li2 O31 2.762979 1_655
Li3 O30 1.990938 1_655
Li3 O0 2.045896 1_545
Li3 O16 2.116841 1_555
Li3 O6 2.425559 1_655
Li3 O14 2.469077 1_555
Li4 O18 2.091247 1_555
Li4 O12 2.179526 1_555
Li4 O10 2.204771 1_555
Li4 O20 2.393220 1_555
Li4 O22 2.482334 1_555
Li4 O8 2.569145 1_555
Li5 O19 2.110130 1_555
Li5 O13 2.145755 1_555
Li5 O21 2.224025 1_555
Li5 O11 2.257699 1_555
Li5 O9 2.720623 1_555
Li5 O23 2.726230 1_555
Li6 O31 1.977929 1_565
Li6 O15 2.028884 1_555
Li6 O1 2.212857 1_455
Li6 O17 2.300277 1_555
Li7 O1 1.954283 1_455
Li7 O30 2.002504 1_565
Li7 O27 2.082721 1_555
Li7 O17 2.108521 1_555
Li8 O0 1.935369 1_544
Li8 O31 1.985739 1_655
Li8 O16 2.039523 1_554
Li8 O26 2.466652 1_554
Li9 O4 2.015380 1_455
Li9 O28 2.117631 1_555
Li9 O20 2.296915 1_555
Li9 O27 2.637000 1_555
Li9 O22 2.656954 1_555
Li9 O6 2.660293 1_555
Li10 O7 2.014314 1_555
Li10 O29 2.055449 1_555
Li10 O23 2.299428 1_555
Li10 O5 2.372613 1_545
Li10 O21 2.746535 1_555
Li10 O19 2.761420 1_555
Li11 O5 1.947248 1_546
Li11 O6 2.030850 1_555
Li11 O28 2.196031 1_555
Li11 O26 2.611221 1_555
Fe0 O9 1.963974 1_556
Fe0 O12 1.973463 1_555
Fe0 O10 1.978671 1_555
Fe0 O2 1.998091 1_555
Fe0 O16 2.163880 1_555
Fe0 O6 2.574613 1_655
Fe1 O13 1.973827 1_555
Fe1 O11 1.990852 1_555
Fe1 O3 2.024466 1_555
Fe1 O8 2.088439 1_555
Fe1 O17 2.090217 1_555
Fe1 O7 2.168556 1_565
Fe2 O18 1.978025 1_555
Fe2 O20 2.010013 1_555
Fe2 O14 2.053504 1_555
Fe2 O23 2.091191 1_555
Fe2 O24 2.098933 1_545
Fe2 O28 2.152364 1_555
Fe3 O19 1.996483 1_555
Fe3 O21 2.020917 1_555
Fe3 O15 2.044189 1_555
Fe3 O29 2.048597 1_555
Fe3 O22 2.067014 1_554
Fe3 O25 2.149391 1_455
O0 P0 1.529153 1_555
O1 P1 1.540689 1_555
O2 P0 1.569947 1_555
O3 P1 1.548795 1_555
O4 P2 1.524037 1_555
O5 P3 1.515579 1_555
O6 P7 1.564816 1_556
O7 P6 1.566486 1_555
O8 P6 1.567469 1_565
O9 P7 1.584673 1_655
O10 P3 1.575035 1_556
O11 P2 1.565187 1_555
O12 P2 1.543648 1_555
O13 P3 1.557948 1_555
O14 P2 1.560501 1_555
O15 P3 1.550295 1_555
O16 P4 1.565550 1_555
O17 P5 1.562688 1_555
O18 P4 1.551372 1_555
O19 P5 1.543020 1_555
O20 P5 1.565484 1_555
O21 P4 1.566982 1_554
O22 P0 1.576277 1_455
O23 P1 1.574766 1_545
O24 P1 1.575960 1_555
O25 P0 1.574891 1_554
O26 P4 1.515936 1_555
O27 P5 1.523378 1_555
O28 P6 1.573376 1_555
O29 P7 1.566694 1_555
O30 P6 1.544273 1_555
O31 P7 1.536315 1_555
