# generated using pymatgen
data_Rb2UO4
_symmetry_space_group_name_H-M   'P 1'
_cell_length_a   7.61982860
_cell_length_b   7.61982860
_cell_length_c   7.61982860
_cell_angle_alpha   146.79712530
_cell_angle_beta   146.79712530
_cell_angle_gamma   47.66426551
_symmetry_Int_Tables_number   1
_chemical_formula_structural   Rb2UO4
_chemical_formula_sum   'Rb2 U1 O4'
_cell_volume   132.14424307
_cell_formula_units_Z   1
loop_
 _symmetry_equiv_pos_site_id
 _symmetry_equiv_pos_as_xyz
  1  'x, y, z'
loop_
 _atom_site_type_symbol
 _atom_site_label
 _atom_site_symmetry_multiplicity
 _atom_site_fract_x
 _atom_site_fract_y
 _atom_site_fract_z
 _atom_site_occupancy
  Rb  Rb0  1  0.34638126  0.34638126  0.00000000  1
  Rb  Rb1  1  0.65361874  0.65361874  -0.00000000  1
  U  U0  1  -0.00000000  -0.00000000  0.00000000  1
  O  O0  1  0.50000000  -0.00000000  0.50000000  1
  O  O1  1  -0.00000000  0.50000000  0.50000000  1
  O  O2  1  0.86114607  0.86114607  0.00000000  1
  O  O3  1  0.13885393  0.13885393  -0.00000000  1
loop_
_geom_bond_atom_site_label_1
_geom_bond_atom_site_label_2
_geom_bond_distance
_geom_bond_site_symmetry_2
O0 U0 2.177080 1_555
O0 U0 2.177080 1_656
O0 O2 2.913148 1_445
O0 O2 2.913148 1_546
O0 O3 2.913148 1_656
O0 O3 2.913148 1_555
O0 Rb1 3.053786 1_556
O0 Rb1 3.053786 1_545
O0 Rb0 3.053786 1_556
O0 Rb0 3.053786 1_545
O1 U0 2.177080 1_566
O1 U0 2.177080 1_555
O1 O2 2.913148 1_445
O1 O3 2.913148 1_566
O1 O3 2.913148 1_555
O1 O2 2.913148 1_456
O1 Rb0 3.053786 1_556
O1 Rb1 3.053786 1_455
O1 Rb1 3.053786 1_556
O1 Rb0 3.053786 1_455
O2 U0 1.935654 1_665
O2 Rb1 2.892977 1_555
O2 Rb0 3.085728 1_655
O2 Rb0 3.085728 1_554
O2 Rb0 3.085728 1_666
O2 Rb0 3.085728 1_565
O3 U0 1.935654 1_555
O3 Rb0 2.892977 1_555
O3 Rb1 3.085728 1_545
O3 Rb1 3.085728 1_444
O3 Rb1 3.085728 1_455
O3 Rb1 3.085728 1_556
