# generated using pymatgen
data_LiMnB2O5
_symmetry_space_group_name_H-M   'P 1'
_cell_length_a   9.47510200
_cell_length_b   6.49295100
_cell_length_c   6.74102431
_cell_angle_alpha   73.75706641
_cell_angle_beta   90.00000000
_cell_angle_gamma   90.00000000
_symmetry_Int_Tables_number   1
_chemical_formula_structural   LiMnB2O5
_chemical_formula_sum   'Li4 Mn4 B8 O20'
_cell_volume   398.16337307
_cell_formula_units_Z   4
loop_
 _symmetry_equiv_pos_site_id
 _symmetry_equiv_pos_as_xyz
  1  'x, y, z'
loop_
 _atom_site_type_symbol
 _atom_site_label
 _atom_site_symmetry_multiplicity
 _atom_site_fract_x
 _atom_site_fract_y
 _atom_site_fract_z
 _atom_site_occupancy
  Li  Li0  1  0.81242700  0.79956300  0.75490700  1
  Li  Li1  1  0.68757300  0.29956300  0.75490700  1
  Li  Li2  1  0.31242700  0.70043700  0.24509300  1
  Li  Li3  1  0.18757300  0.20043700  0.24509300  1
  Mn  Mn0  1  0.43893200  0.68190500  0.81939400  1
  Mn  Mn1  1  0.06106800  0.18190500  0.81939400  1
  Mn  Mn2  1  0.93893200  0.81809500  0.18060600  1
  Mn  Mn3  1  0.56106800  0.31809500  0.18060600  1
  B  B0  1  0.13120800  0.70616600  0.85922000  1
  B  B1  1  0.36879200  0.20616600  0.85922000  1
  B  B2  1  0.04759600  0.72263800  0.50579800  1
  B  B3  1  0.54759600  0.77736200  0.49420200  1
  B  B4  1  0.45240400  0.22263800  0.50579800  1
  B  B5  1  0.95240400  0.27736200  0.49420200  1
  B  B6  1  0.63120800  0.79383400  0.14078000  1
  B  B7  1  0.86879200  0.29383400  0.14078000  1
  O  O0  1  0.75737200  0.82437400  0.04249000  1
  O  O1  1  0.01815200  0.81877400  0.90908500  1
  O  O2  1  0.74262800  0.32437400  0.04249000  1
  O  O3  1  0.48184800  0.31877400  0.90908500  1
  O  O4  1  0.11267600  0.62089100  0.69121300  1
  O  O5  1  0.61870400  0.74399300  0.67925600  1
  O  O6  1  0.38732400  0.12089100  0.69121300  1
  O  O7  1  0.90800200  0.78265800  0.48031000  1
  O  O8  1  0.88129600  0.24399300  0.67925600  1
  O  O9  1  0.40800200  0.71734200  0.51969000  1
  O  O10  1  0.59199800  0.28265800  0.48031000  1
  O  O11  1  0.11870400  0.75600700  0.32074400  1
  O  O12  1  0.09199800  0.21734200  0.51969000  1
  O  O13  1  0.61267600  0.87910900  0.30878700  1
  O  O14  1  0.38129600  0.25600700  0.32074400  1
  O  O15  1  0.88732400  0.37910900  0.30878700  1
  O  O16  1  0.51815200  0.68122600  0.09091500  1
  O  O17  1  0.25737200  0.67562600  0.95751000  1
  O  O18  1  0.98184800  0.18122600  0.09091500  1
  O  O19  1  0.24262800  0.17562600  0.95751000  1
loop_
_geom_bond_atom_site_label_1
_geom_bond_atom_site_label_2
_geom_bond_distance
_geom_bond_site_symmetry_2
Li0 O5 1.965302 1_555
Li0 O0 2.056931 1_556
Li0 O7 2.090988 1_555
Li0 O1 2.228878 1_655
Li1 O8 1.965302 1_555
Li1 O2 2.056931 1_556
Li1 O10 2.090988 1_555
Li1 O3 2.228878 1_555
Li2 O11 1.965302 1_555
Li2 O17 2.056931 1_554
Li2 O9 2.090988 1_555
Li2 O16 2.228878 1_555
Li3 O14 1.965302 1_555
Li3 O19 2.056931 1_554
Li3 O12 2.090988 1_555
Li3 O18 2.228878 1_455
Mn0 O5 1.934763 1_555
Mn0 O17 1.951077 1_555
Mn0 O16 1.977129 1_556
Mn0 O9 1.990085 1_555
Mn0 O3 2.300567 1_555
Mn1 O8 1.934763 1_455
Mn1 O19 1.951077 1_555
Mn1 O18 1.977129 1_456
Mn1 O12 1.990085 1_555
Mn1 O1 2.300567 1_545
Mn2 O11 1.934763 1_655
Mn2 O0 1.951077 1_555
Mn2 O1 1.977129 1_654
Mn2 O7 1.990085 1_555
Mn2 O18 2.300567 1_565
Mn3 O14 1.934763 1_555
Mn3 O2 1.951077 1_555
Mn3 O3 1.977129 1_554
Mn3 O10 1.990085 1_555
Mn3 O16 2.300567 1_555
B0 O17 1.354197 1_555
B0 O1 1.390173 1_555
B0 O4 1.403867 1_555
B1 O19 1.354197 1_555
B1 O3 1.390173 1_555
B1 O6 1.403867 1_555
B2 O7 1.376003 1_455
B2 O11 1.380518 1_555
B2 O4 1.384550 1_555
B3 O9 1.376003 1_555
B3 O5 1.380518 1_555
B3 O13 1.384550 1_555
B4 O10 1.376003 1_555
B4 O14 1.380518 1_555
B4 O6 1.384550 1_555
B5 O12 1.376003 1_655
B5 O8 1.380518 1_555
B5 O15 1.384550 1_555
B6 O0 1.354197 1_555
B6 O16 1.390173 1_555
B6 O13 1.403867 1_555
B7 O2 1.354197 1_555
B7 O18 1.390173 1_555
B7 O15 1.403867 1_555
