# generated using pymatgen
data_Li2Fe2Si8O19
_symmetry_space_group_name_H-M   'P 1'
_cell_length_a   7.21243483
_cell_length_b   7.21243483
_cell_length_c   12.54388197
_cell_angle_alpha   72.78377178
_cell_angle_beta   72.78377178
_cell_angle_gamma   40.28240131
_symmetry_Int_Tables_number   1
_chemical_formula_structural   Li2Fe2Si8O19
_chemical_formula_sum   'Li2 Fe2 Si8 O19'
_cell_volume   400.37835431
_cell_formula_units_Z   1
loop_
 _symmetry_equiv_pos_site_id
 _symmetry_equiv_pos_as_xyz
  1  'x, y, z'
loop_
 _atom_site_type_symbol
 _atom_site_label
 _atom_site_symmetry_multiplicity
 _atom_site_fract_x
 _atom_site_fract_y
 _atom_site_fract_z
 _atom_site_occupancy
  Li  Li0  1  0.23717200  0.56290900  0.63875500  1
  Li  Li1  1  0.43709100  0.76282800  0.36124500  1
  Fe  Fe0  1  0.31111500  0.29154700  0.40267700  1
  Fe  Fe1  1  0.70845300  0.68888500  0.59732300  1
  Si  Si0  1  0.53645000  0.22227900  0.92747400  1
  Si  Si1  1  0.13549800  0.84730300  0.16923900  1
  Si  Si2  1  0.91588300  0.95026100  0.41921000  1
  Si  Si3  1  0.67264500  0.76690400  0.83145500  1
  Si  Si4  1  0.23309600  0.32735500  0.16854500  1
  Si  Si5  1  0.04973900  0.08411700  0.58079000  1
  Si  Si6  1  0.15269700  0.86450200  0.83076100  1
  Si  Si7  1  0.77772100  0.46355000  0.07252600  1
  O  O0  1  0.83393700  0.13223900  0.89163700  1
  O  O1  1  0.26431700  0.56932600  0.89801000  1
  O  O2  1  0.12278600  0.87819200  0.29655000  1
  O  O3  1  0.59474600  0.27285100  0.41734800  1
  O  O4  1  0.55034100  0.06158800  0.85249300  1
  O  O5  1  0.94297800  0.69496200  0.45672400  1
  O  O6  1  0.87531900  0.65711500  0.71311300  1
  O  O7  1  0.13772300  0.61909100  0.17294500  1
  O  O8  1  0.84563400  0.52013200  0.93831600  1
  O  O9  1  0.47986800  0.15436600  0.06168400  1
  O  O10  1  0.38090900  0.86227700  0.82705500  1
  O  O11  1  0.34288500  0.12468100  0.28688700  1
  O  O12  1  0.30503800  0.05702200  0.54327600  1
  O  O13  1  0.93841200  0.44965900  0.14750700  1
  O  O14  1  0.72714900  0.40525400  0.58265200  1
  O  O15  1  0.12180800  0.87721400  0.70345000  1
  O  O16  1  0.10953500  0.89046500  0.50000000  1
  O  O17  1  0.43067400  0.73568300  0.10199000  1
  O  O18  1  0.86776100  0.16606300  0.10836300  1
loop_
_geom_bond_atom_site_label_1
_geom_bond_atom_site_label_2
_geom_bond_distance
_geom_bond_site_symmetry_2
Li0 O15 2.073935 1_555
Li0 O6 2.090825 1_455
Li0 O16 2.157394 1_555
Li0 O14 2.673466 1_555
Li1 O2 2.073935 1_555
Li1 O11 2.090825 1_565
Li1 O16 2.157394 1_555
Li1 O3 2.673466 1_555
Fe0 O3 2.006019 1_555
Fe0 O11 2.006881 1_555
Fe0 O12 2.067604 1_555
Fe0 O5 2.071331 1_455
Fe1 O14 2.006019 1_555
Fe1 O6 2.006881 1_555
Fe1 O5 2.067604 1_555
Fe1 O12 2.071331 1_565
O0 Si6 1.630248 1_645
O0 Si0 1.644194 1_555
O1 Si6 1.617416 1_555
O1 Si0 1.624907 1_555
O2 Si1 1.643513 1_555
O2 Si2 1.671899 1_455
O3 Si2 1.598847 1_545
O4 Si0 1.627953 1_555
O4 Si3 1.642794 1_545
O5 Si2 1.625614 1_555
O6 Si3 1.616390 1_555
O7 Si1 1.620637 1_555
O7 Si4 1.655758 1_555
O8 Si7 1.628138 1_556
O8 Si3 1.646485 1_555
O9 Si0 1.628138 1_554
O9 Si4 1.646485 1_555
O10 Si6 1.620637 1_555
O10 Si3 1.655758 1_555
O11 Si4 1.616390 1_555
O12 Si5 1.625614 1_555
O13 Si7 1.627953 1_555
O13 Si4 1.642794 1_655
O14 Si5 1.598847 1_655
O15 Si6 1.643513 1_555
O15 Si5 1.671899 1_565
O16 Si5 1.680450 1_565
O16 Si2 1.680450 1_455
O17 Si1 1.617416 1_555
O17 Si7 1.624907 1_555
O18 Si1 1.630248 1_645
O18 Si7 1.644194 1_555
