# generated using pymatgen
data_K2Sn2OF6
_symmetry_space_group_name_H-M   'P 1'
_cell_length_a   10.20280264
_cell_length_b   10.20280264
_cell_length_c   10.20280264
_cell_angle_alpha   92.44159071
_cell_angle_beta   92.44159071
_cell_angle_gamma   156.17708481
_symmetry_Int_Tables_number   1
_chemical_formula_structural   K2Sn2OF6
_chemical_formula_sum   'K4 Sn4 O2 F12'
_cell_volume   419.75014871
_cell_formula_units_Z   2
loop_
 _symmetry_equiv_pos_site_id
 _symmetry_equiv_pos_as_xyz
  1  'x, y, z'
loop_
 _atom_site_type_symbol
 _atom_site_label
 _atom_site_symmetry_multiplicity
 _atom_site_fract_x
 _atom_site_fract_y
 _atom_site_fract_z
 _atom_site_occupancy
  K  K0  1  0.35248700  0.63865100  0.99113800  1
  K  K1  1  0.64751300  0.36134900  0.00886200  1
  K  K2  1  0.36134900  0.35248700  0.71383700  1
  K  K3  1  0.63865100  0.64751300  0.28616300  1
  Sn  Sn0  1  0.97760300  0.33746500  0.31506800  1
  Sn  Sn1  1  0.02239700  0.66253500  0.68493200  1
  Sn  Sn2  1  0.66253500  0.97760300  0.64013800  1
  Sn  Sn3  1  0.33746500  0.02239700  0.35986200  1
  O  O0  1  0.00000000  0.00000000  0.00000000  1
  O  O1  1  0.50000000  0.50000000  0.00000000  1
  F  F0  1  0.79458400  0.03789500  0.83247900  1
  F  F1  1  0.20541600  0.96210500  0.16752100  1
  F  F2  1  0.96210500  0.79458400  0.75668900  1
  F  F3  1  0.03789500  0.20541600  0.24331100  1
  F  F4  1  0.47210300  0.79295600  0.26505900  1
  F  F5  1  0.52789700  0.20704400  0.73494100  1
  F  F6  1  0.20704400  0.47210300  0.67914700  1
  F  F7  1  0.79295600  0.52789700  0.32085300  1
  F  F8  1  0.84288600  0.28319400  0.12608000  1
  F  F9  1  0.15711400  0.71680600  0.87392000  1
  F  F10  1  0.71680600  0.84288600  0.55969100  1
  F  F11  1  0.28319400  0.15711400  0.44030900  1
loop_
_geom_bond_atom_site_label_1
_geom_bond_atom_site_label_2
_geom_bond_distance
_geom_bond_site_symmetry_2
K0 O1 2.858177 1_556
K1 O1 2.858177 1_555
K2 O1 2.858167 1_556
K3 O1 2.858167 1_555
O0 O1 2.105857 1_445
O0 O1 2.105857 1_555
F0 Sn2 2.049437 1_545
F0 F6 2.612453 1_655
F0 F6 2.612453 1_545
F0 K0 2.669537 1_655
F0 K0 2.669537 1_545
F1 Sn3 2.049437 1_565
F1 F7 2.612453 1_565
F1 F7 2.612453 1_455
F1 K1 2.669537 1_455
F1 K1 2.669537 1_565
F2 Sn1 2.049437 1_655
F2 F5 2.612453 1_665
F2 F5 2.612453 1_555
F2 K2 2.669533 1_665
F2 K2 2.669537 1_555
F3 Sn0 2.049437 1_455
F3 F4 2.612453 1_555
F3 F4 2.612453 1_445
F3 K3 2.669533 1_445
F3 K3 2.669537 1_555
F4 Sn0 2.198985 1_455
F4 Sn0 2.198985 1_565
F4 K0 2.756425 1_554
F4 F8 2.789582 1_565
F4 F8 2.789582 1_455
F4 K3 3.121759 1_555
F5 Sn1 2.198985 1_545
F5 Sn1 2.198985 1_655
F5 K1 2.756425 1_556
F5 F9 2.789582 1_545
F5 F9 2.789582 1_655
F5 K2 3.121759 1_555
F6 Sn2 2.198985 1_445
F6 Sn2 2.198985 1_555
F6 K2 2.756426 1_555
F6 K0 3.121760 1_555
F7 Sn3 2.198985 1_555
F7 Sn3 2.198985 1_665
F7 K3 2.756426 1_555
F7 K1 3.121760 1_555
F8 Sn0 2.050504 1_555
F8 K0 2.935548 1_544
F8 K0 2.935548 1_654
F8 K1 2.970838 1_555
F9 Sn1 2.050504 1_555
F9 K1 2.935548 1_456
F9 K1 2.935548 1_566
F9 K0 2.970838 1_555
F10 Sn2 2.050508 1_555
F10 F6 2.789584 1_665
F10 F6 2.789588 1_555
F10 K2 2.935556 1_665
F10 K2 2.935562 1_555
F10 K3 2.970838 1_555
F11 Sn3 2.050508 1_555
F11 F7 2.789584 1_445
F11 F7 2.789588 1_555
F11 K3 2.935556 1_445
F11 K3 2.935562 1_555
F11 K2 2.970838 1_555
