# generated using pymatgen
data_Li10Mn3F16
_symmetry_space_group_name_H-M   'P 1'
_cell_length_a   10.26234743
_cell_length_b   10.26234743
_cell_length_c   10.26234763
_cell_angle_alpha   34.44847073
_cell_angle_beta   34.44847073
_cell_angle_gamma   34.44846858
_symmetry_Int_Tables_number   1
_chemical_formula_structural   Li10Mn3F16
_chemical_formula_sum   'Li10 Mn3 F16'
_cell_volume   308.49318277
_cell_formula_units_Z   1
loop_
 _symmetry_equiv_pos_site_id
 _symmetry_equiv_pos_as_xyz
  1  'x, y, z'
loop_
 _atom_site_type_symbol
 _atom_site_label
 _atom_site_symmetry_multiplicity
 _atom_site_fract_x
 _atom_site_fract_y
 _atom_site_fract_z
 _atom_site_occupancy
  Li  Li0  1  0.74605100  0.25508000  0.74605100  1
  Li  Li1  1  0.74492000  0.25394900  0.25394900  1
  Li  Li2  1  0.50000000  0.00000000  0.50000000  1
  Li  Li3  1  0.74605100  0.74605100  0.25508000  1
  Li  Li4  1  0.50000000  0.50000000  0.50000000  1
  Li  Li5  1  0.50000000  0.50000000  0.00000000  1
  Li  Li6  1  0.25394900  0.25394900  0.74492000  1
  Li  Li7  1  0.00000000  0.50000000  0.50000000  1
  Li  Li8  1  0.25394900  0.74492000  0.25394900  1
  Li  Li9  1  0.25508000  0.74605100  0.74605100  1
  Mn  Mn0  1  0.19171800  0.19171800  0.19171800  1
  Mn  Mn1  1  0.00000000  0.00000000  0.00000000  1
  Mn  Mn2  1  0.80828200  0.80828200  0.80828200  1
  F  F0  1  0.63032800  0.12307000  0.12307000  1
  F  F1  1  0.12307000  0.12307000  0.63032800  1
  F  F2  1  0.12039300  0.12039300  0.12039300  1
  F  F3  1  0.60563300  0.15695400  0.60563300  1
  F  F4  1  0.84304600  0.39436700  0.39436700  1
  F  F5  1  0.12307000  0.63032800  0.12307000  1
  F  F6  1  0.39436700  0.39436700  0.84304600  1
  F  F7  1  0.37237600  0.37237600  0.37237600  1
  F  F8  1  0.62762400  0.62762400  0.62762400  1
  F  F9  1  0.60563300  0.60563300  0.15695400  1
  F  F10  1  0.87693000  0.36967200  0.87693000  1
  F  F11  1  0.15695400  0.60563300  0.60563300  1
  F  F12  1  0.39436700  0.84304600  0.39436700  1
  F  F13  1  0.87960700  0.87960700  0.87960700  1
  F  F14  1  0.87693000  0.87693000  0.36967200  1
  F  F15  1  0.36967200  0.87693000  0.87693000  1
loop_
_geom_bond_atom_site_label_1
_geom_bond_atom_site_label_2
_geom_bond_distance
_geom_bond_site_symmetry_2
F0 Mn1 2.099677 1_655
F0 Li5 2.131358 1_555
F0 Li2 2.131358 1_555
F0 Li3 2.155461 1_545
F0 Li0 2.155461 1_554
F1 Mn1 2.099677 1_556
F1 Li2 2.131358 1_555
F1 Li7 2.131358 1_555
F1 Li9 2.155461 1_545
F1 Li0 2.155461 1_455
F2 Mn0 2.063537 1_555
F2 Li8 2.069382 1_545
F2 Li1 2.069382 1_455
F2 Li6 2.069382 1_554
F3 Li6 1.993212 1_555
F3 Li1 1.993212 1_555
F3 Mn2 2.010135 1_545
F3 Li4 2.023301 1_555
F4 Li3 1.993212 1_555
F4 Li0 1.993212 1_555
F4 Mn0 2.010135 1_655
F4 Li4 2.023301 1_555
F5 Mn1 2.099677 1_565
F5 Li5 2.131358 1_555
F5 Li7 2.131358 1_555
F5 Li3 2.155461 1_455
F5 Li9 2.155461 1_554
F6 Li9 1.993212 1_555
F6 Li0 1.993212 1_555
F6 Mn0 2.010135 1_556
F6 Li4 2.023301 1_555
F7 Li7 2.086629 1_555
F7 Li2 2.086629 1_555
F7 Li5 2.086629 1_555
F7 Li1 2.163401 1_555
F7 Li8 2.163401 1_555
F7 Li6 2.163401 1_555
F8 Li2 2.086629 1_565
F8 Li7 2.086629 1_655
F8 Li5 2.086629 1_556
F8 Li0 2.163401 1_555
F8 Li9 2.163401 1_555
F8 Li3 2.163401 1_555
F9 Li1 1.993212 1_555
F9 Li8 1.993212 1_555
F9 Mn2 2.010135 1_554
F9 Li4 2.023301 1_555
F10 Mn1 2.099677 1_656
F10 Li5 2.131358 1_556
F10 Li7 2.131358 1_655
F10 Li6 2.155461 1_655
F10 Li1 2.155461 1_556
F11 Li6 1.993212 1_555
F11 Li8 1.993212 1_555
F11 Mn2 2.010135 1_455
F11 Li4 2.023301 1_555
F12 Li3 1.993212 1_555
F12 Li9 1.993212 1_555
F12 Mn0 2.010135 1_565
F12 Li4 2.023301 1_555
F13 Mn2 2.063537 1_555
F13 Li9 2.069382 1_655
F13 Li0 2.069382 1_565
F13 Li3 2.069382 1_556
F14 Mn1 2.099677 1_665
F14 Li7 2.131358 1_655
F14 Li2 2.131358 1_565
F14 Li8 2.155461 1_655
F14 Li1 2.155461 1_565
F15 Mn1 2.099677 1_566
F15 Li5 2.131358 1_556
F15 Li2 2.131358 1_565
F15 Li6 2.155461 1_565
F15 Li8 2.155461 1_556
