# generated using pymatgen
data_V3FeCo2(PO4)6
_symmetry_space_group_name_H-M   'P 1'
_cell_length_a   8.50606524
_cell_length_b   8.50606524
_cell_length_c   8.50606476
_cell_angle_alpha   60.94954736
_cell_angle_beta   60.94954736
_cell_angle_gamma   60.94954502
_symmetry_Int_Tables_number   1
_chemical_formula_structural   V3FeCo2(PO4)6
_chemical_formula_sum   'V3 Fe1 Co2 P6 O24'
_cell_volume   444.49321446
_cell_formula_units_Z   1
loop_
 _symmetry_equiv_pos_site_id
 _symmetry_equiv_pos_as_xyz
  1  'x, y, z'
loop_
 _atom_site_type_symbol
 _atom_site_label
 _atom_site_symmetry_multiplicity
 _atom_site_fract_x
 _atom_site_fract_y
 _atom_site_fract_z
 _atom_site_occupancy
  V  V0  1  0.64307000  0.64307000  0.64307000  1
  V  V1  1  0.85726800  0.85726800  0.85726800  1
  V  V2  1  0.35771200  0.35771200  0.35771200  1
  Fe  Fe0  1  0.14422500  0.14422500  0.14422500  1
  Co  Co0  1  0.00102800  0.00102800  0.00102800  1
  Co  Co1  1  0.50020800  0.50020800  0.50020800  1
  P  P0  1  0.95597600  0.24915800  0.54414100  1
  P  P1  1  0.54414100  0.95597600  0.24915800  1
  P  P2  1  0.24915800  0.54414100  0.95597600  1
  P  P3  1  0.75066400  0.45755400  0.04219000  1
  P  P4  1  0.45755400  0.04219000  0.75066400  1
  P  P5  1  0.04219000  0.75066400  0.45755400  1
  O  O0  1  0.51026200  0.11436300  0.30753400  1
  O  O1  1  0.30753400  0.51026200  0.11436300  1
  O  O2  1  0.11436300  0.30753400  0.51026200  1
  O  O3  1  0.93565300  0.08610400  0.74277800  1
  O  O4  1  0.98827200  0.19011800  0.38580900  1
  O  O5  1  0.75705900  0.41225700  0.56520900  1
  O  O6  1  0.74277800  0.93565300  0.08610400  1
  O  O7  1  0.56520900  0.75705900  0.41225700  1
  O  O8  1  0.81727500  0.61820200  0.99818900  1
  O  O9  1  0.41225700  0.56520900  0.75705900  1
  O  O10  1  0.91125000  0.26271400  0.05069000  1
  O  O11  1  0.61820200  0.99818900  0.81727500  1
  O  O12  1  0.38580900  0.98827200  0.19011800  1
  O  O13  1  0.08610400  0.74277800  0.93565300  1
  O  O14  1  0.59138900  0.44776500  0.23751500  1
  O  O15  1  0.19011800  0.38580900  0.98827200  1
  O  O16  1  0.44776500  0.23751500  0.59138900  1
  O  O17  1  0.26271400  0.05069000  0.91125000  1
  O  O18  1  0.23751500  0.59138900  0.44776500  1
  O  O19  1  0.99818900  0.81727500  0.61820200  1
  O  O20  1  0.05069000  0.91125000  0.26271400  1
  O  O21  1  0.88269300  0.68125800  0.50245900  1
  O  O22  1  0.68125800  0.50245900  0.88269300  1
  O  O23  1  0.50245900  0.88269300  0.68125800  1
loop_
_geom_bond_atom_site_label_1
_geom_bond_atom_site_label_2
_geom_bond_distance
_geom_bond_site_symmetry_2
Fe0 O4 1.940011 1_455
Fe0 O12 1.940011 1_545
Fe0 O15 1.940012 1_554
Fe0 O17 2.094921 1_554
Fe0 O10 2.094921 1_455
Fe0 O20 2.094921 1_545
Co0 O20 2.159954 1_545
Co0 O10 2.159954 1_455
Co0 O17 2.159954 1_554
Co0 O3 2.215865 1_454
Co0 O13 2.215865 1_544
Co0 O6 2.215865 1_445
Co1 O14 2.177706 1_555
Co1 O18 2.177706 1_555
Co1 O16 2.177706 1_555
Co1 O9 2.196084 1_555
Co1 O5 2.196084 1_555
Co1 O7 2.196084 1_555
O0 P1 1.509423 1_545
O0 V2 1.965261 1_555
O1 P2 1.509423 1_554
O1 V2 1.965261 1_555
O2 P0 1.509423 1_455
O2 V2 1.965261 1_555
O3 P0 1.575335 1_555
O3 V1 1.992649 1_545
O4 P0 1.518239 1_555
O5 P0 1.577016 1_555
O5 V0 2.005932 1_555
O6 P1 1.575335 1_555
O6 V1 1.992649 1_554
O7 P1 1.577016 1_555
O7 V0 2.005932 1_555
O8 P3 1.541968 1_556
O8 V1 1.896392 1_555
O9 P2 1.577016 1_555
O9 V0 2.005932 1_555
O10 P3 1.548800 1_555
O11 P4 1.541968 1_565
O11 V1 1.896392 1_555
O12 P1 1.518239 1_555
O13 P2 1.575335 1_555
O13 V1 1.992649 1_455
O14 P3 1.546616 1_555
O14 V2 2.080234 1_555
O15 P2 1.518239 1_555
O16 P4 1.546616 1_555
O16 V2 2.080234 1_555
O17 P4 1.548800 1_555
O18 P5 1.546616 1_555
O18 V2 2.080234 1_555
O19 P5 1.541968 1_655
O19 V1 1.896392 1_555
O20 P5 1.548800 1_555
O21 P5 1.546170 1_655
O21 V0 1.894374 1_555
O22 P3 1.546170 1_556
O22 V0 1.894373 1_555
O23 P4 1.546170 1_565
O23 V0 1.894373 1_555
