# generated using pymatgen
data_TaCrO4
_symmetry_space_group_name_H-M   'P 1'
_cell_length_a   3.09363648
_cell_length_b   9.35744692
_cell_length_c   4.67859748
_cell_angle_alpha   91.14693228
_cell_angle_beta   90.01904120
_cell_angle_gamma   90.01686800
_symmetry_Int_Tables_number   1
_chemical_formula_structural   TaCrO4
_chemical_formula_sum   'Ta2 Cr2 O8'
_cell_volume   135.41141392
_cell_formula_units_Z   2
loop_
 _symmetry_equiv_pos_site_id
 _symmetry_equiv_pos_as_xyz
  1  'x, y, z'
loop_
 _atom_site_type_symbol
 _atom_site_label
 _atom_site_symmetry_multiplicity
 _atom_site_fract_x
 _atom_site_fract_y
 _atom_site_fract_z
 _atom_site_occupancy
  Ta  Ta0  1  0.49993600  0.00109700  0.00258600  1
  Ta  Ta1  1  0.49993600  0.50109800  0.00258700  1
  Cr  Cr0  1  0.99999200  0.75107400  0.50252200  1
  Cr  Cr1  1  0.99999200  0.25107400  0.50252300  1
  O  O0  1  0.00000200  0.40428200  0.19613100  1
  O  O1  1  0.00000200  0.90428100  0.19612800  1
  O  O2  1  0.99996200  0.09830100  0.80983000  1
  O  O3  1  0.99996200  0.59830300  0.80983300  1
  O  O4  1  0.50038300  0.35034000  0.70019700  1
  O  O5  1  0.50038300  0.85034000  0.70020000  1
  O  O6  1  0.49961800  0.15197300  0.30514500  1
  O  O7  1  0.49961800  0.65197300  0.30514100  1
loop_
_geom_bond_atom_site_label_1
_geom_bond_atom_site_label_2
_geom_bond_distance
_geom_bond_site_symmetry_2
Cr0 O7 2.017254 1_655
Cr0 O7 2.018139 1_555
Cr0 O5 2.018534 1_555
Cr0 O5 2.019498 1_655
Cr0 O1 2.047550 1_655
Cr0 O3 2.047709 1_555
Cr1 O6 2.017248 1_655
Cr1 O6 2.018133 1_555
Cr1 O4 2.018526 1_555
Cr1 O4 2.019489 1_655
Cr1 O0 2.047550 1_655
Cr1 O2 2.047708 1_555
O0 Ta1 2.016349 1_555
O0 Ta1 2.016610 1_455
O1 Ta0 2.016345 1_565
O1 Ta0 2.016606 1_465
O2 Ta0 2.016375 1_656
O2 Ta0 2.016548 1_556
O2 O6 2.821774 1_656
O2 O6 2.823947 1_556
O2 O5 2.825797 1_545
O2 O5 2.828156 1_645
O3 Ta1 2.016375 1_656
O3 Ta1 2.016548 1_556
O3 O7 2.821745 1_656
O3 O7 2.823917 1_556
O3 O4 2.825817 1_555
O3 O4 2.828176 1_655
O4 Ta1 1.977816 1_556
O5 Ta0 1.977797 1_566
O6 Ta0 1.979142 1_555
O7 Ta1 1.979119 1_555
