# generated using pymatgen
data_H2RuC8S3N(ClO)3
_symmetry_space_group_name_H-M   'P 1'
_cell_length_a   10.59768500
_cell_length_b   14.79054700
_cell_length_c   28.50039100
_cell_angle_alpha   90.00000000
_cell_angle_beta   90.00000000
_cell_angle_gamma   90.00000000
_symmetry_Int_Tables_number   1
_chemical_formula_structural   H2RuC8S3N(ClO)3
_chemical_formula_sum   'H16 Ru8 C64 S24 N8 Cl24 O24'
_cell_volume   4467.30969290
_cell_formula_units_Z   8
loop_
 _symmetry_equiv_pos_site_id
 _symmetry_equiv_pos_as_xyz
  1  'x, y, z'
loop_
 _atom_site_type_symbol
 _atom_site_label
 _atom_site_symmetry_multiplicity
 _atom_site_fract_x
 _atom_site_fract_y
 _atom_site_fract_z
 _atom_site_occupancy
  H  H0  1  0.88384800  0.21747000  0.88340600  1
  H  H1  1  0.38384800  0.78253000  0.11659400  1
  H  H2  1  0.38384800  0.71747000  0.61659400  1
  H  H3  1  0.88384800  0.28253000  0.38340600  1
  H  H4  1  0.77411500  0.15292700  0.85230900  1
  H  H5  1  0.27411500  0.84707300  0.14769100  1
  H  H6  1  0.27411500  0.65292700  0.64769100  1
  H  H7  1  0.77411500  0.34707300  0.35230900  1
  H  H8  1  0.26607700  0.07561400  0.67746800  1
  H  H9  1  0.76607700  0.92438600  0.32253200  1
  H  H10  1  0.76607700  0.57561400  0.82253200  1
  H  H11  1  0.26607700  0.42438600  0.17746800  1
  H  H12  1  0.18437600  0.14724000  0.59172400  1
  H  H13  1  0.68437600  0.85276000  0.40827600  1
  H  H14  1  0.68437600  0.64724000  0.90827600  1
  H  H15  1  0.18437600  0.35276000  0.09172400  1
  Ru  Ru0  1  0.48119400  0.10674200  0.75592700  1
  Ru  Ru1  1  0.98119400  0.89325800  0.24407300  1
  Ru  Ru2  1  0.98119400  0.60674200  0.74407300  1
  Ru  Ru3  1  0.48119400  0.39325800  0.25592700  1
  Ru  Ru4  1  0.99169500  0.21597700  0.52986700  1
  Ru  Ru5  1  0.49169500  0.78402300  0.47013300  1
  Ru  Ru6  1  0.49169500  0.71597700  0.97013300  1
  Ru  Ru7  1  0.99169500  0.28402300  0.02986700  1
  C  C0  1  0.94649000  0.09670300  0.85895500  1
  C  C1  1  0.44649000  0.90329700  0.14104500  1
  C  C2  1  0.44649000  0.59670300  0.64104500  1
  C  C3  1  0.94649000  0.40329700  0.35895500  1
  C  C4  1  0.36994600  0.11567500  0.86871700  1
  C  C5  1  0.86994600  0.88432500  0.13128300  1
  C  C6  1  0.86994600  0.61567500  0.63128300  1
  C  C7  1  0.36994600  0.38432500  0.36871700  1
  C  C8  1  0.30761400  0.17949400  0.88887300  1
  C  C9  1  0.80761400  0.82050600  0.11112700  1
  C  C10  1  0.80761400  0.67949400  0.61112700  1
  C  C11  1  0.30761400  0.32050600  0.38887300  1
  C  C12  1  0.03151200  0.03447800  0.85075700  1
  C  C13  1  0.53151200  0.96552200  0.14924300  1
  C  C14  1  0.53151200  0.53447800  0.64924300  1
  C  C15  1  0.03151200  0.46552200  0.35075700  1
  C  C16  1  0.65352700  0.83518400  0.75155400  1
  C  C17  1  0.15352700  0.16481600  0.24844600  1
  C  C18  1  0.15352700  0.33518400  0.74844600  1
  C  C19  1  0.65352700  0.66481600  0.25155400  1
  C  C20  1  0.66283100  0.91575600  0.73554200  1
  C  C21  1  0.16283100  0.08424400  0.26445800  1
  C  C22  1  0.16283100  0.41575600  0.76445800  1
  C  C23  1  0.66283100  0.58424400  0.23554200  1
  C  C24  1  0.62971200  0.29967900  0.71756800  1
  C  C25  1  0.12971200  0.70032100  0.28243200  1
  C  C26  1  0.12971200  0.79967900  0.78243200  1
  C  C27  1  0.62971200  0.20032100  0.21756800  1
  C  C28  1  0.70309400  0.30799500  0.68174300  1
  C  C29  1  0.20309400  0.69200500  0.31825700  1
  C  C30  1  0.20309400  0.80799500  0.81825700  1
  C  C31  1  0.70309400  0.19200500  0.18174300  1
  C  C32  1  0.05252500  0.05058800  0.68229200  1
  C  C33  1  0.55252500  0.94941200  0.31770800  1
  C  C34  1  0.55252500  0.55058800  0.81770800  1
  C  C35  1  0.05252500  0.44941200  0.18229200  1
  C  C36  1  0.09256500  0.07353700  0.44479900  1
  C  C37  1  0.59256500  0.92646300  0.55520100  1
  C  C38  1  0.59256500  0.57353700  0.05520100  1
  C  C39  1  0.09256500  0.42646300  0.94479900  1
  C  C40  1  0.20301900  0.05191500  0.42960500  1
  C  C41  1  0.70301900  0.94808500  0.57039500  1
  C  C42  1  0.70301900  0.55191500  0.07039500  1
  C  C43  1  0.20301900  0.44808500  0.92960500  1
  C  C44  1  0.11343200  0.97964400  0.65046400  1
  C  C45  1  0.61343200  0.02035600  0.34953600  1
  C  C46  1  0.61343200  0.47964400  0.84953600  1
  C  C47  1  0.11343200  0.52035600  0.15046400  1
  C  C48  1  0.26627700  0.42400600  0.54712700  1
  C  C49  1  0.76627700  0.57599400  0.45287300  1
  C  C50  1  0.76627700  0.92400600  0.95287300  1
  C  C51  1  0.26627700  0.07599400  0.04712700  1
  C  C52  1  0.15576600  0.41854200  0.52851300  1
  C  C53  1  0.65576600  0.58145800  0.47148700  1
  C  C54  1  0.65576600  0.91854200  0.97148700  1
  C  C55  1  0.15576600  0.08145800  0.02851300  1
  C  C56  1  0.58005300  0.20131200  0.53148800  1
  C  C57  1  0.08005300  0.79868800  0.46851200  1
  C  C58  1  0.08005300  0.70131200  0.96851200  1
  C  C59  1  0.58005300  0.29868800  0.03148800  1
  C  C60  1  0.67758800  0.25238300  0.53580500  1
  C  C61  1  0.17758800  0.74761700  0.46419500  1
  C  C62  1  0.17758800  0.75238300  0.96419500  1
  C  C63  1  0.67758800  0.24761700  0.03580500  1
  S  S0  1  0.48643800  0.09298300  0.83493500  1
  S  S1  1  0.98643800  0.90701700  0.16506500  1
  S  S2  1  0.98643800  0.59298300  0.66506500  1
  S  S3  1  0.48643800  0.40701700  0.33493500  1
  S  S4  1  0.66102800  0.02232000  0.74792000  1
  S  S5  1  0.16102800  0.97768000  0.25208000  1
  S  S6  1  0.16102800  0.52232000  0.75208000  1
  S  S7  1  0.66102800  0.47768000  0.24792000  1
  S  S8  1  0.59830900  0.23459900  0.76080300  1
  S  S9  1  0.09830900  0.76540100  0.23919700  1
  S  S10  1  0.09830900  0.73459900  0.73919700  1
  S  S11  1  0.59830900  0.26540100  0.26080300  1
  S  S12  1  0.98789000  0.14643700  0.45929500  1
  S  S13  1  0.48789000  0.85356300  0.54070500  1
  S  S14  1  0.48789000  0.64643700  0.04070500  1
  S  S15  1  0.98789000  0.35356300  0.95929500  1
  S  S16  1  0.09147300  0.34052700  0.49743000  1
  S  S17  1  0.59147300  0.65947300  0.50257000  1
  S  S18  1  0.59147300  0.84052700  0.00257000  1
  S  S19  1  0.09147300  0.15947300  0.99743000  1
  S  S20  1  0.81091400  0.28497500  0.51627300  1
  S  S21  1  0.31091400  0.71502500  0.48372700  1
  S  S22  1  0.31091400  0.78497500  0.98372700  1
  S  S23  1  0.81091400  0.21502500  0.01627300  1
  N  N0  1  0.86424200  0.15909500  0.86513500  1
  N  N1  1  0.36424200  0.84090500  0.13486500  1
  N  N2  1  0.36424200  0.65909500  0.63486500  1
  N  N3  1  0.86424200  0.34090500  0.36513500  1
  N  N4  1  0.17499600  0.04699100  0.67226000  1
  N  N5  1  0.67499600  0.95300900  0.32774000  1
  N  N6  1  0.67499600  0.54699100  0.82774000  1
  N  N7  1  0.17499600  0.45300900  0.17226000  1
  Cl  Cl0  1  0.45929600  0.11529700  0.67305000  1
  Cl  Cl1  1  0.95929600  0.88470300  0.32695000  1
  Cl  Cl2  1  0.95929600  0.61529700  0.82695000  1
  Cl  Cl3  1  0.45929600  0.38470300  0.17305000  1
  Cl  Cl4  1  0.36067500  0.97344700  0.75243800  1
  Cl  Cl5  1  0.86067500  0.02655300  0.24756200  1
  Cl  Cl6  1  0.86067500  0.47344700  0.74756200  1
  Cl  Cl7  1  0.36067500  0.52655300  0.25243800  1
  Cl  Cl8  1  0.29023300  0.18749200  0.76099300  1
  Cl  Cl9  1  0.79023300  0.81250800  0.23900700  1
  Cl  Cl10  1  0.79023300  0.68749200  0.73900700  1
  Cl  Cl11  1  0.29023300  0.31250800  0.26099300  1
  Cl  Cl12  1  0.01333000  0.27529500  0.60543900  1
  Cl  Cl13  1  0.51333000  0.72470500  0.39456100  1
  Cl  Cl14  1  0.51333000  0.77529500  0.89456100  1
  Cl  Cl15  1  0.01333000  0.22470500  0.10543900  1
  Cl  Cl16  1  0.20541600  0.14235200  0.54688900  1
  Cl  Cl17  1  0.70541600  0.85764800  0.45311100  1
  Cl  Cl18  1  0.70541600  0.64235200  0.95311100  1
  Cl  Cl19  1  0.20541600  0.35764800  0.04688900  1
  Cl  Cl20  1  0.89770300  0.08851300  0.56381400  1
  Cl  Cl21  1  0.39770300  0.91148700  0.43618600  1
  Cl  Cl22  1  0.39770300  0.58851300  0.93618600  1
  Cl  Cl23  1  0.89770300  0.41148700  0.06381400  1
  O  O0  1  0.60343300  0.06554200  0.85868600  1
  O  O1  1  0.10343300  0.93445800  0.14131400  1
  O  O2  1  0.10343300  0.56554200  0.64131400  1
  O  O3  1  0.60343300  0.43445800  0.35868600  1
  O  O4  1  0.78364600  0.06062800  0.76100400  1
  O  O5  1  0.28364600  0.93937200  0.23899600  1
  O  O6  1  0.28364600  0.56062800  0.73899600  1
  O  O7  1  0.78364600  0.43937200  0.26100400  1
  O  O8  1  0.66001500  0.25689900  0.80557800  1
  O  O9  1  0.16001500  0.74310100  0.19442200  1
  O  O10  1  0.16001500  0.75689900  0.69442200  1
  O  O11  1  0.66001500  0.24310100  0.30557800  1
  O  O12  1  0.89359500  0.16963800  0.42329200  1
  O  O13  1  0.39359500  0.83036200  0.57670800  1
  O  O14  1  0.39359500  0.66963800  0.07670800  1
  O  O15  1  0.89359500  0.33036200  0.92329200  1
  O  O16  1  0.10433000  0.34763100  0.44643300  1
  O  O17  1  0.60433000  0.65236900  0.55356700  1
  O  O18  1  0.60433000  0.84763100  0.05356700  1
  O  O19  1  0.10433000  0.15236900  0.94643300  1
  O  O20  1  0.80958300  0.36296700  0.48471000  1
  O  O21  1  0.30958300  0.63703300  0.51529000  1
  O  O22  1  0.30958300  0.86296700  0.01529000  1
  O  O23  1  0.80958300  0.13703300  0.98471000  1
loop_
_geom_bond_atom_site_label_1
_geom_bond_atom_site_label_2
_geom_bond_distance
_geom_bond_site_symmetry_2
H0 N0 1.029460 1_555
H0 O15 2.022603 1_555
H1 N1 1.029460 1_555
H1 O14 2.022603 1_555
H2 N2 1.029460 1_555
H2 O13 2.022603 1_555
H3 N3 1.029460 1_555
H3 O12 2.022603 1_555
H4 N0 1.026759 1_555
H5 N1 1.026759 1_555
H6 N2 1.026759 1_555
H7 N3 1.026759 1_555
H8 N4 1.064406 1_555
H9 N5 1.064406 1_555
H10 N6 1.064406 1_555
H11 N7 1.064406 1_555
Ru0 S0 2.261619 1_555
Ru0 S8 2.266258 1_555
Ru0 S4 2.289839 1_555
Ru1 S1 2.261619 1_555
Ru1 S9 2.266258 1_655
Ru1 S5 2.289839 1_655
Ru2 S2 2.261619 1_555
Ru2 S10 2.266258 1_655
Ru2 S6 2.289839 1_655
Ru3 S3 2.261619 1_555
Ru3 S11 2.266258 1_555
Ru3 S7 2.289839 1_555
Ru4 S20 2.205013 1_555
Ru4 S12 2.259415 1_555
Ru4 S16 2.316534 1_655
Ru5 S21 2.205013 1_555
Ru5 S13 2.259415 1_555
Ru5 S17 2.316534 1_555
Ru6 S22 2.205013 1_555
Ru6 S14 2.259415 1_556
Ru6 S18 2.316534 1_556
Ru7 S23 2.205013 1_555
Ru7 S15 2.259415 1_554
Ru7 S19 2.316534 1_654
C0 N0 1.281545 1_555
C0 C12 1.309002 1_655
C1 N1 1.281545 1_555
C1 C13 1.309002 1_555
C2 N2 1.281545 1_555
C3 N3 1.281545 1_555
C4 C8 1.287376 1_555
C4 S0 1.601166 1_555
C5 C9 1.287376 1_555
C5 S1 1.601166 1_555
C6 S2 1.601166 1_555
C7 S3 1.601166 1_555
C10 C6 1.287376 1_555
C11 C7 1.287376 1_555
C14 C2 1.309002 1_555
C15 C3 1.309002 1_455
C16 C20 1.279896 1_555
C16 Cl10 2.645487 1_555
C17 C21 1.279896 1_555
C17 Cl11 2.645487 1_555
C18 C22 1.279896 1_555
C18 Cl8 2.645487 1_555
C19 C23 1.279896 1_555
C19 Cl9 2.645487 1_555
C20 S4 1.615250 1_565
C21 S5 1.615250 1_545
C22 S6 1.615250 1_555
C23 S7 1.615250 1_555
C24 C28 1.289344 1_555
C24 S8 1.598639 1_555
C25 C29 1.289344 1_555
C25 S9 1.598639 1_555
C26 C30 1.289344 1_555
C26 S10 1.598639 1_555
C27 C31 1.289344 1_555
C27 S11 1.598639 1_555
C32 N4 1.330093 1_555
C32 C44 1.529875 1_545
C33 N5 1.330093 1_555
C33 C45 1.529875 1_565
C34 N6 1.330093 1_555
C34 C46 1.529875 1_555
C35 N7 1.330093 1_555
C35 C47 1.529875 1_555
C36 C40 1.288408 1_555
C36 S12 1.601200 1_455
C37 C41 1.288408 1_555
C37 S13 1.601200 1_555
C38 C42 1.288408 1_555
C38 S14 1.601200 1_555
C39 C43 1.288408 1_555
C39 S15 1.601200 1_455
C40 Cl21 2.933587 1_545
C41 Cl20 2.933587 1_565
C42 Cl23 2.933587 1_555
C43 Cl22 2.933587 1_555
C44 N4 1.343044 1_565
C45 N5 1.343044 1_545
C46 N6 1.343044 1_555
C47 N7 1.343044 1_555
C48 C52 1.288249 1_555
C49 C53 1.288249 1_555
C50 C54 1.288249 1_555
C51 C55 1.288249 1_555
C52 S16 1.606386 1_555
C53 S17 1.606386 1_555
C54 S18 1.606386 1_556
C55 S19 1.606386 1_554
C56 C60 1.286134 1_555
C57 C61 1.286134 1_555
C58 C62 1.286134 1_555
C59 C63 1.286134 1_555
C60 S20 1.593322 1_555
C61 S21 1.593322 1_555
C62 S22 1.593322 1_555
C63 S23 1.593322 1_555
Cl0 H8 2.133850 1_555
Cl0 Ru0 2.376770 1_555
Cl1 H9 2.133850 1_555
Cl1 Ru1 2.376770 1_555
Cl2 H10 2.133850 1_555
Cl2 Ru2 2.376770 1_555
Cl3 H11 2.133850 1_555
Cl3 Ru3 2.376770 1_555
Cl4 Ru0 2.351174 1_565
Cl4 H8 2.802475 1_565
Cl4 N4 3.205780 1_565
Cl4 S0 3.229599 1_565
Cl4 Cl8 3.261795 1_565
Cl5 Ru1 2.351174 1_545
Cl5 H9 2.802475 1_545
Cl5 N5 3.205780 1_545
Cl5 S1 3.229599 1_545
Cl5 Cl9 3.261795 1_545
Cl6 Ru2 2.351174 1_555
Cl6 H10 2.802475 1_555
Cl6 N6 3.205780 1_555
Cl6 S2 3.229599 1_555
Cl7 Ru3 2.351174 1_555
Cl7 H11 2.802475 1_555
Cl7 N7 3.205780 1_555
Cl7 S3 3.229599 1_555
Cl8 Ru0 2.354321 1_555
Cl8 H8 2.910403 1_555
Cl9 Ru1 2.354321 1_555
Cl9 H9 2.910403 1_555
Cl10 Ru2 2.354321 1_555
Cl10 H10 2.910403 1_555
Cl10 Cl6 3.261795 1_555
Cl11 Ru3 2.354321 1_555
Cl11 H11 2.910403 1_555
Cl11 Cl7 3.261795 1_555
Cl12 Ru4 2.336941 1_455
Cl12 H12 2.650639 1_555
Cl12 Cl20 3.246680 1_455
Cl13 Ru5 2.336941 1_555
Cl13 H13 2.650639 1_555
Cl13 Cl21 3.246680 1_555
Cl14 Ru6 2.336941 1_555
Cl14 H14 2.650639 1_555
Cl14 Cl22 3.246680 1_555
Cl15 Ru7 2.336941 1_455
Cl15 H15 2.650639 1_555
Cl15 Cl23 3.246680 1_455
Cl16 H12 1.299137 1_555
Cl16 Ru4 2.559524 1_455
Cl17 H13 1.299137 1_555
Cl17 Ru5 2.559524 1_555
Cl18 H14 1.299137 1_555
Cl18 Ru6 2.559524 1_555
Cl19 H15 1.299137 1_555
Cl19 Ru7 2.559524 1_455
Cl20 Ru4 2.341471 1_555
Cl20 S12 3.243598 1_555
Cl21 Ru5 2.341471 1_555
Cl21 S13 3.243598 1_555
Cl22 Ru6 2.341471 1_555
Cl22 S14 3.243598 1_556
Cl23 Ru7 2.341471 1_555
Cl23 S15 3.243598 1_554
O0 S0 1.469773 1_555
O1 S1 1.469773 1_455
O2 S2 1.469773 1_455
O3 S3 1.469773 1_555
O4 S4 1.465844 1_555
O5 S5 1.465844 1_555
O6 S6 1.465844 1_555
O7 S7 1.465844 1_555
O8 S8 1.471350 1_555
O9 S9 1.471350 1_555
O10 S10 1.471350 1_555
O11 S11 1.471350 1_555
O12 S12 1.472839 1_555
O13 S13 1.472839 1_555
O14 S14 1.472839 1_555
O15 S15 1.472839 1_555
O16 S16 1.463584 1_555
O17 S17 1.463584 1_555
O18 S18 1.463584 1_555
O19 S19 1.463584 1_555
O20 S20 1.462897 1_555
O21 S21 1.462897 1_555
O22 S22 1.462897 1_554
O23 S23 1.462897 1_556
