# generated using pymatgen
data_LiCu3(CO3)3
_symmetry_space_group_name_H-M   'P 1'
_cell_length_a   14.01203845
_cell_length_b   14.03601840
_cell_length_c   3.20035758
_cell_angle_alpha   93.90117149
_cell_angle_beta   91.11134142
_cell_angle_gamma   59.18698607
_symmetry_Int_Tables_number   1
_chemical_formula_structural   LiCu3(CO3)3
_chemical_formula_sum   'Li3 Cu9 C9 O27'
_cell_volume   539.23700740
_cell_formula_units_Z   3
loop_
 _symmetry_equiv_pos_site_id
 _symmetry_equiv_pos_as_xyz
  1  'x, y, z'
loop_
 _atom_site_type_symbol
 _atom_site_label
 _atom_site_symmetry_multiplicity
 _atom_site_fract_x
 _atom_site_fract_y
 _atom_site_fract_z
 _atom_site_occupancy
  Li  Li0  1  0.17824900  0.25132300  0.00241100  1
  Li  Li1  1  0.51993700  0.58380700  0.01150700  1
  Li  Li2  1  0.87355200  0.89901000  0.97461900  1
  Cu  Cu0  1  0.12089800  0.76981800  0.51059500  1
  Cu  Cu1  1  0.44910500  0.81285900  0.50114200  1
  Cu  Cu2  1  0.10898900  0.46182000  0.44723800  1
  Cu  Cu3  1  0.44112400  0.42945800  0.57693400  1
  Cu  Cu4  1  0.11064100  0.08972000  0.48978500  1
  Cu  Cu5  1  0.79452100  0.73926700  0.51367300  1
  Cu  Cu6  1  0.75839100  0.44187900  0.52894600  1
  Cu  Cu7  1  0.44494300  0.11309000  0.43321500  1
  Cu  Cu8  1  0.78198000  0.12861200  0.49014200  1
  C  C0  1  0.00540300  0.66183600  0.99807800  1
  C  C1  1  0.33505900  0.68241400  0.53762000  1
  C  C2  1  0.68656900  0.98351400  0.46474100  1
  C  C3  1  0.33370300  0.32992600  0.00518500  1
  C  C4  1  0.66242700  0.66696900  0.01658900  1
  C  C5  1  0.65218900  0.33820800  0.99220200  1
  C  C6  1  0.33289100  0.01450900  0.01052800  1
  C  C7  1  0.98995700  0.32828700  0.51135600  1
  C  C8  1  0.99732300  0.99808300  0.97800700  1
  O  O0  1  0.01302300  0.89834200  0.92746900  1
  O  O1  1  0.07853200  0.67868300  0.17036700  1
  O  O2  1  0.34431700  0.91773600  0.92570400  1
  O  O3  1  0.02540300  0.55909100  0.94555900  1
  O  O4  1  0.25046600  0.78010100  0.51061700  1
  O  O5  1  0.32299600  0.59919300  0.57930900  1
  O  O6  1  0.68225100  0.89481700  0.47655200  1
  O  O7  1  0.43528600  0.66935600  0.52497000  1
  O  O8  1  0.08716200  0.32129300  0.51404700  1
  O  O9  1  0.78439200  0.97783100  0.49459800  1
  O  O10  1  0.56681700  0.75632100  0.08176300  1
  O  O11  1  0.22850500  0.36036100  0.02883900  1
  O  O12  1  0.36369300  0.40328000  0.07218800  1
  O  O13  1  0.07946000  0.01473600  0.93792800  1
  O  O14  1  0.66626700  0.57331700  0.92271600  1
  O  O15  1  0.75274000  0.67082100  0.03515300  1
  O  O16  1  0.55020400  0.42714200  0.03213800  1
  O  O17  1  0.23652900  0.09722800  0.14215700  1
  O  O18  1  0.40541600  0.22738200  0.91322500  1
  O  O19  1  0.91058200  0.74359200  0.88306800  1
  O  O20  1  0.73677400  0.34671100  0.10008600  1
  O  O21  1  0.41700000  0.02867500  0.96874900  1
  O  O22  1  0.66185000  0.24700400  0.83934200  1
  O  O23  1  0.90256900  0.42395500  0.48845100  1
  O  O24  1  0.60090400  0.07715100  0.42001300  1
  O  O25  1  0.98433500  0.24057000  0.53336500  1
  O  O26  1  0.89859700  0.08117000  0.06802800  1
loop_
_geom_bond_atom_site_label_1
_geom_bond_atom_site_label_2
_geom_bond_distance
_geom_bond_site_symmetry_2
Li0 O8 1.962839 1_555
Li0 O17 1.962884 1_555
Li0 O8 1.970689 1_554
Li0 O11 1.982304 1_555
Li1 O7 1.974097 1_555
Li1 O7 1.999232 1_554
Li1 O14 2.003526 1_554
Li1 O16 2.020613 1_555
Li2 O0 1.958192 1_655
Li2 O19 1.968028 1_555
Li2 O9 1.971197 1_555
Li2 O9 1.992032 1_556
Cu0 O4 1.893505 1_555
Cu0 O1 1.933295 1_555
Cu0 O0 2.067905 1_555
Cu0 O0 2.564560 1_554
Cu0 O5 2.627288 1_555
Cu1 O10 1.936912 1_555
Cu1 O2 1.939059 1_555
Cu1 O7 2.126356 1_555
Cu1 O10 2.354556 1_556
Cu1 O2 2.400840 1_554
Cu2 O3 1.979182 1_555
Cu2 O11 2.002443 1_555
Cu2 O3 2.097788 1_554
Cu2 O8 2.169726 1_555
Cu2 O11 2.468521 1_556
Cu3 O12 2.044807 1_555
Cu3 O16 2.080540 1_556
Cu3 O5 2.091353 1_555
Cu3 O12 2.092538 1_556
Cu3 O16 2.328489 1_555
Cu4 O25 1.940404 1_455
Cu4 O13 2.014044 1_555
Cu4 O13 2.146177 1_554
Cu4 O17 2.154731 1_555
Cu5 O6 1.940367 1_555
Cu5 O15 1.988019 1_555
Cu5 O19 2.015630 1_555
Cu5 O15 2.209813 1_556
Cu5 O19 2.639408 1_554
Cu6 O23 1.909564 1_555
Cu6 O20 1.977053 1_555
Cu6 O14 1.991219 1_555
Cu6 O20 2.446491 1_556
Cu6 O14 2.604645 1_554
Cu7 O24 1.975664 1_555
Cu7 O21 1.994936 1_554
Cu7 O18 2.006883 1_555
Cu7 O18 2.250978 1_554
Cu7 O21 2.296138 1_555
Cu8 O26 1.946014 1_555
Cu8 O22 1.948947 1_555
Cu8 O9 2.100275 1_545
Cu8 O26 2.338709 1_556
Cu8 O22 2.720690 1_554
C0 O1 1.272203 1_556
C0 O19 1.301580 1_455
C0 O3 1.319597 1_555
C1 O5 1.278734 1_555
C1 O4 1.280470 1_555
C1 O7 1.320994 1_555
C2 O24 1.261505 1_565
C2 O6 1.280100 1_555
C2 O9 1.333512 1_555
C3 O18 1.280660 1_554
C3 O12 1.300904 1_555
C3 O11 1.309899 1_555
C4 O10 1.290393 1_555
C4 O15 1.294066 1_555
C4 O14 1.302112 1_554
C5 O22 1.279151 1_555
C5 O20 1.289033 1_556
C5 O16 1.332115 1_556
C6 O2 1.293464 1_544
C6 O21 1.302369 1_554
C6 O17 1.303099 1_555
C7 O23 1.277996 1_555
C7 O25 1.279997 1_555
C7 O8 1.314360 1_655
C8 O26 1.293711 1_566
C8 O13 1.296565 1_665
C8 O0 1.299814 1_655
