# generated using pymatgen
data_La26B8O51
_symmetry_space_group_name_H-M   'P 1'
_cell_length_a   6.95586400
_cell_length_b   13.00753710
_cell_length_c   14.70877751
_cell_angle_alpha   90.06870193
_cell_angle_beta   99.36272060
_cell_angle_gamma   90.31220154
_symmetry_Int_Tables_number   1
_chemical_formula_structural   La26B8O51
_chemical_formula_sum   'La26 B8 O51'
_cell_volume   1313.07900873
_cell_formula_units_Z   1
loop_
 _symmetry_equiv_pos_site_id
 _symmetry_equiv_pos_as_xyz
  1  'x, y, z'
loop_
 _atom_site_type_symbol
 _atom_site_label
 _atom_site_symmetry_multiplicity
 _atom_site_fract_x
 _atom_site_fract_y
 _atom_site_fract_z
 _atom_site_occupancy
  La  La0  1  0.84797200  0.30885800  0.02888900  1
  La  La1  1  0.93451000  0.28953700  0.29712600  1
  La  La2  1  0.99999500  0.50235500  0.49919100  1
  La  La3  1  0.85544900  0.20623600  0.53703000  1
  La  La4  1  0.94492000  0.21240300  0.80075100  1
  La  La5  1  0.67654500  0.61157400  0.05863300  1
  La  La6  1  0.77551100  0.98970800  0.31584700  1
  La  La7  1  0.00046500  0.99937800  0.99888700  1
  La  La8  1  0.62524500  0.69772200  0.34044900  1
  La  La9  1  0.68372100  0.87518200  0.56897500  1
  La  La10  1  0.51327900  0.88856900  0.08473500  1
  La  La11  1  0.76856500  0.49972200  0.83242700  1
  La  La12  1  0.48175300  0.38883400  0.41242200  1
  La  La13  1  0.62610600  0.80098700  0.84437200  1
  La  La14  1  0.37333600  0.20084600  0.15451400  1
  La  La15  1  0.51445400  0.60644200  0.58674000  1
  La  La16  1  0.23172900  0.50080100  0.16767500  1
  La  La17  1  0.48418800  0.11021900  0.91305300  1
  La  La18  1  0.29061800  0.11716900  0.43810800  1
  La  La19  1  0.37681900  0.30075400  0.66311600  1
  La  La20  1  0.23849600  0.00044100  0.66793900  1
  La  La21  1  0.32276600  0.38836300  0.94071700  1
  La  La22  1  0.05939600  0.78461600  0.19956700  1
  La  La23  1  0.15602800  0.80928300  0.47058900  1
  La  La24  1  0.06337300  0.71137700  0.70244000  1
  La  La25  1  0.15115800  0.69099300  0.97004200  1
  B  B0  1  0.86325200  0.09895100  0.16127700  1
  B  B1  1  0.86243000  0.40466000  0.66257800  1
  B  B2  1  0.67106500  0.44906000  0.21112000  1
  B  B3  1  0.66917000  0.05132600  0.70723900  1
  B  B4  1  0.33397900  0.94875400  0.29458000  1
  B  B5  1  0.32873400  0.55118900  0.78902500  1
  B  B6  1  0.13819800  0.59748600  0.33786900  1
  B  B7  1  0.13752000  0.90334200  0.83647400  1
  O  O0  1  0.99131500  0.65144400  0.37007500  1
  O  O1  1  0.93760400  0.12812100  0.40029800  1
  O  O2  1  0.84285800  0.99156400  0.15367300  1
  O  O3  1  0.84214900  0.42987500  0.17505000  1
  O  O4  1  0.99048300  0.85028900  0.86927500  1
  O  O5  1  0.83878300  0.34623900  0.43133600  1
  O  O6  1  0.80804900  0.85523000  0.41415800  1
  O  O7  1  0.72834900  0.76548200  0.18261600  1
  O  O8  1  0.73463700  0.15144400  0.20808400  1
  O  O9  1  0.97050700  0.36193400  0.89251300  1
  O  O10  1  0.84272400  0.51009000  0.65279600  1
  O  O11  1  0.83221600  0.06927400  0.66432900  1
  O  O12  1  0.59497200  0.54719100  0.21441800  1
  O  O13  1  0.83605200  0.15448000  0.93105000  1
  O  O14  1  0.51365400  0.25070500  0.01865600  1
  O  O15  1  0.65742200  0.55314200  0.45091200  1
  O  O16  1  0.81214300  0.65530700  0.91028300  1
  O  O17  1  0.72934100  0.73931200  0.67461600  1
  O  O18  1  0.57201700  0.36708700  0.24358100  1
  O  O19  1  0.73399700  0.34762700  0.70625300  1
  O  O20  1  0.59466100  0.95251800  0.71436000  1
  O  O21  1  0.42741200  0.86885300  0.25815900  1
  O  O22  1  0.52017700  0.23847700  0.51297200  1
  O  O23  1  0.33693300  0.54543200  0.03317100  1
  O  O24  1  0.65820500  0.94593900  0.95256000  1
  O  O25  1  0.34240400  0.05427200  0.04894700  1
  O  O26  1  0.66323800  0.45468400  0.96687500  1
  O  O27  1  0.48490500  0.74922700  0.48362100  1
  O  O28  1  0.57336900  0.13245600  0.74113800  1
  O  O29  1  0.42686200  0.04477700  0.30310500  1
  O  O30  1  0.26799300  0.65131200  0.29240700  1
  O  O31  1  0.42730700  0.63296400  0.75683200  1
  O  O32  1  0.35989200  0.96155900  0.52934400  1
  O  O33  1  0.25993700  0.25985400  0.32498900  1
  O  O34  1  0.18784300  0.34429900  0.08972000  1
  O  O35  1  0.34471200  0.44234300  0.54774000  1
  O  O36  1  0.48583300  0.74894900  0.98135500  1
  O  O37  1  0.16382600  0.84513000  0.06845000  1
  O  O38  1  0.40550900  0.45287300  0.78524100  1
  O  O39  1  0.15434900  0.93323600  0.32478300  1
  O  O40  1  0.15625400  0.49136200  0.34808000  1
  O  O41  1  0.02833400  0.63684600  0.10656300  1
  O  O42  1  0.26608300  0.84956300  0.79075500  1
  O  O43  1  0.27378400  0.23784100  0.81918900  1
  O  O44  1  0.18584900  0.15728000  0.58908300  1
  O  O45  1  0.16455200  0.65538700  0.56917700  1
  O  O46  1  0.01067200  0.15003500  0.12982300  1
  O  O47  1  0.15797800  0.56936600  0.82556900  1
  O  O48  1  0.15699900  0.00986300  0.84591600  1
  O  O49  1  0.03823600  0.86332000  0.60585800  1
  O  O50  1  0.01109400  0.35240600  0.63002300  1
loop_
_geom_bond_atom_site_label_1
_geom_bond_atom_site_label_2
_geom_bond_distance
_geom_bond_site_symmetry_2
La0 O26 2.393855 1_554
La0 O9 2.404172 1_554
La0 O14 2.422669 1_555
La0 O34 2.429185 1_655
La0 O13 2.462249 1_554
La0 O3 2.668764 1_555
La0 O46 2.690532 1_655
La1 O33 2.269162 1_655
La1 O5 2.305176 1_555
La1 O8 2.499885 1_555
La1 O3 2.571859 1_555
La1 O1 2.590232 1_555
La1 O18 2.716439 1_555
La1 O40 3.067200 1_655
La2 O45 2.432923 1_655
La2 O5 2.446110 1_555
La2 O15 2.467097 1_555
La2 O35 2.516619 1_655
La2 O40 2.632302 1_655
La2 O10 2.667645 1_555
La2 O0 2.709978 1_555
La2 O50 2.734194 1_655
La3 O22 2.341436 1_555
La3 O5 2.386870 1_555
La3 O44 2.391258 1_655
La3 O1 2.403982 1_555
La3 O50 2.479421 1_655
La3 O11 2.609452 1_555
La4 O43 2.281563 1_655
La4 O13 2.298632 1_555
La4 O9 2.355483 1_555
La4 O19 2.559064 1_555
La4 O11 2.751449 1_555
La4 O28 2.785835 1_555
La4 O48 3.047301 1_655
La5 O36 2.405188 1_554
La5 O26 2.438335 1_554
La5 O41 2.454027 1_655
La5 O23 2.479942 1_555
La5 O16 2.577078 1_554
La5 O12 2.587722 1_555
La5 O7 2.689412 1_555
La5 O3 3.040161 1_555
La6 O6 2.259631 1_555
La6 O1 2.360624 1_565
La6 O2 2.504730 1_555
La6 O29 2.510174 1_565
La6 O8 2.624321 1_565
La6 O39 2.722036 1_655
La6 O21 2.888066 1_555
La7 O37 2.452588 1_556
La7 O13 2.456110 1_465
La7 O24 2.463392 1_455
La7 O25 2.473781 1_566
La7 O48 2.657622 1_565
La7 O2 2.684595 1_456
La7 O4 2.710483 1_455
La7 O46 2.738510 1_566
La8 O15 2.473935 1_555
La8 O30 2.539736 1_555
La8 O6 2.550993 1_555
La8 O27 2.551302 1_555
La8 O0 2.586961 1_555
La8 O12 2.678522 1_555
La8 O7 2.687087 1_555
La8 O21 2.794930 1_555
La9 O17 2.343263 1_555
La9 O27 2.361860 1_555
La9 O49 2.442978 1_655
La9 O32 2.505574 1_555
La9 O20 2.530073 1_555
La9 O6 2.577310 1_555
La9 O11 2.983229 1_565
La10 O36 2.354158 1_554
La10 O24 2.446573 1_554
La10 O37 2.465854 1_555
La10 O25 2.482456 1_565
La10 O7 2.490987 1_555
La10 O2 2.699171 1_555
La10 O21 2.724884 1_555
La11 O26 2.293521 1_555
La11 O16 2.318141 1_555
La11 O9 2.365122 1_555
La11 O38 2.577300 1_555
La11 O19 2.693856 1_555
La11 O10 2.776472 1_555
La11 O47 2.868847 1_655
La11 O31 3.010897 1_555
La12 O22 2.442919 1_555
La12 O35 2.444561 1_555
La12 O15 2.474871 1_555
La12 O33 2.483991 1_555
La12 O5 2.518427 1_555
La12 O40 2.671940 1_555
La12 O18 2.673820 1_555
La13 O16 2.414159 1_555
La13 O24 2.451476 1_555
La13 O36 2.470943 1_555
La13 O4 2.578578 1_555
La13 O42 2.582327 1_555
La13 O20 2.732666 1_555
La13 O31 2.779893 1_555
La13 O17 2.824646 1_555
La14 O34 2.384391 1_555
La14 O25 2.443785 1_555
La14 O14 2.448935 1_555
La14 O46 2.572082 1_555
La14 O8 2.593121 1_555
La14 O18 2.770138 1_555
La14 O33 2.853819 1_555
La14 O29 2.964919 1_555
La15 O27 2.387837 1_555
La15 O35 2.455309 1_555
La15 O15 2.472190 1_555
La15 O45 2.491686 1_555
La15 O17 2.495961 1_555
La15 O10 2.653481 1_555
La15 O31 2.690605 1_555
La16 O23 2.292540 1_555
La16 O34 2.329328 1_555
La16 O41 2.357638 1_555
La16 O12 2.576440 1_555
La16 O30 2.664190 1_555
La16 O40 2.790215 1_555
La16 O3 2.876616 1_455
La16 O18 3.010649 1_555
La17 O14 2.383181 1_556
La17 O25 2.476823 1_556
La17 O13 2.483013 1_555
La17 O24 2.484229 1_545
La17 O43 2.485633 1_555
La17 O48 2.663103 1_555
La17 O28 2.715284 1_555
La18 O22 2.376628 1_555
La18 O1 2.432864 1_455
La18 O32 2.436557 1_545
La18 O33 2.480880 1_555
La18 O44 2.502508 1_555
La18 O29 2.519022 1_555
La18 O39 2.975348 1_545
La19 O44 2.435293 1_555
La19 O35 2.492074 1_555
La19 O19 2.533106 1_555
La19 O50 2.603161 1_555
La19 O43 2.643247 1_555
La19 O38 2.655620 1_555
La19 O22 2.692360 1_555
La19 O28 2.739829 1_555
La20 O49 2.347471 1_545
La20 O44 2.348829 1_555
La20 O32 2.384708 1_545
La20 O20 2.541641 1_545
La20 O42 2.655484 1_545
La20 O48 2.769876 1_555
La20 O28 2.944439 1_555
La20 O11 2.961379 1_455
La21 O14 2.412265 1_556
La21 O23 2.445551 1_556
La21 O9 2.459608 1_455
La21 O26 2.486250 1_555
La21 O34 2.584384 1_556
La21 O38 2.587025 1_555
La21 O43 2.632674 1_555
La21 O47 3.022081 1_555
La22 O7 2.287667 1_455
La22 O37 2.306481 1_555
La22 O41 2.346401 1_555
La22 O30 2.522916 1_555
La22 O39 2.673444 1_555
La22 O21 2.783094 1_555
La22 O2 3.112605 1_455
La22 O0 3.146857 1_455
La23 O49 2.378527 1_555
La23 O27 2.399452 1_555
La23 O45 2.468572 1_555
La23 O32 2.499519 1_555
La23 O6 2.503638 1_455
La23 O0 2.670134 1_455
La23 O39 2.683188 1_555
La24 O45 2.306268 1_555
La24 O17 2.323415 1_455
La24 O49 2.425807 1_555
La24 O42 2.505448 1_555
La24 O47 2.599757 1_555
La24 O31 2.731279 1_555
La24 O10 3.054672 1_455
La24 O4 3.154036 1_455
La25 O23 2.399469 1_556
La25 O41 2.411078 1_556
La25 O16 2.421073 1_455
La25 O36 2.422789 1_555
La25 O37 2.464208 1_556
La25 O47 2.654517 1_555
La25 O4 2.689408 1_455
B0 O46 1.361896 1_655
B0 O8 1.395174 1_555
B0 O2 1.405738 1_545
B1 O10 1.384302 1_555
B1 O50 1.388742 1_655
B1 O19 1.393480 1_555
B2 O12 1.388300 1_555
B2 O18 1.392772 1_555
B2 O3 1.402957 1_555
B3 O28 1.385946 1_555
B3 O20 1.393617 1_545
B3 O11 1.403377 1_555
B4 O21 1.381610 1_555
B4 O29 1.399169 1_565
B4 O39 1.406193 1_555
B5 O31 1.387331 1_555
B5 O38 1.393087 1_555
B5 O47 1.402168 1_555
B6 O0 1.387577 1_455
B6 O40 1.392881 1_555
B6 O30 1.393961 1_555
B7 O4 1.381560 1_455
B7 O42 1.393783 1_555
B7 O48 1.396007 1_565
O0 O45 2.980241 1_655
O0 O15 3.051655 1_555
O0 O6 3.061637 1_555
O1 O8 2.964204 1_555
O1 O5 2.975021 1_555
O1 O44 3.044076 1_655
O2 O24 3.082808 1_554
O2 O7 3.090565 1_555
O3 O34 3.099069 1_655
O3 O41 3.214473 1_655
O5 O50 2.973615 1_655
O10 O15 3.091798 1_555
O10 O17 3.117808 1_555
O11 O44 3.073154 1_655
O11 O49 3.226051 1_645
O12 O23 2.961720 1_555
O12 O7 3.042624 1_555
O13 O9 2.937067 1_555
O13 O46 2.978667 1_656
O13 O24 3.013557 1_545
O13 O14 3.036949 1_556
O13 O28 3.091166 1_555
O14 O25 2.878936 1_555
O14 O34 2.916948 1_555
O14 O26 2.989167 1_554
O14 O43 3.134132 1_554
O14 O8 3.229517 1_555
O15 O27 2.897449 1_555
O15 O5 3.011771 1_555
O16 O36 2.920175 1_555
O16 O4 2.923699 1_555
O16 O26 2.971875 1_555
O16 O41 3.040899 1_656
O16 O47 3.096826 1_655
O17 O31 2.930662 1_555
O17 O49 2.985716 1_655
O17 O20 3.018789 1_555
O17 O27 3.041189 1_555
O18 O33 2.984698 1_555
O18 O5 3.079509 1_555
O19 O9 2.962395 1_555
O20 O32 2.939948 1_555
O21 O7 2.865010 1_555
O21 O37 3.093582 1_555
O22 O44 2.932586 1_555
O22 O35 3.003046 1_555
O22 O5 3.025579 1_555
O23 O41 2.822356 1_555
O23 O26 2.870977 1_554
O23 O34 2.977978 1_555
O23 O36 2.982174 1_554
O23 O47 3.120974 1_554
O24 O36 2.883919 1_555
O24 O4 3.056072 1_555
O25 O37 3.017772 1_545
O25 O46 3.035145 1_555
O25 O48 3.106403 1_554
O26 O9 2.829411 1_555
O26 O38 2.965299 1_555
O26 O3 3.129794 1_556
O27 O6 2.951997 1_555
O27 O45 2.987551 1_555
O27 O32 3.008095 1_555
O27 O30 3.224700 1_555
O28 O43 2.888832 1_555
O29 O33 3.071370 1_555
O30 O41 2.966365 1_555
O31 O45 3.067642 1_555
O32 O49 2.949067 1_555
O32 O44 3.015521 1_565
O32 O39 3.134471 1_555
O33 O40 3.131234 1_555
O34 O46 2.908274 1_555
O34 O9 3.054594 1_454
O35 O50 3.017644 1_555
O35 O40 3.083913 1_555
O35 O45 3.084412 1_555
O36 O37 3.030425 1_556
O36 O7 3.166230 1_556
O36 O42 3.247329 1_555
O37 O41 2.947936 1_555
O37 O4 2.982120 1_454
O38 O43 3.006088 1_555
O41 O7 3.032865 1_455
O42 O49 2.922663 1_555
O43 O9 2.998675 1_455
O43 O48 3.112664 1_555
O44 O50 2.924098 1_555
O45 O49 2.924914 1_555
O47 O9 3.214968 1_455
O49 O6 3.008956 1_455
