# generated using pymatgen
data_Li2VCr(P2O7)2
_symmetry_space_group_name_H-M   'P 1'
_cell_length_a   7.01622500
_cell_length_b   9.54376036
_cell_length_c   12.75185769
_cell_angle_alpha   99.52068436
_cell_angle_beta   104.20500152
_cell_angle_gamma   99.37664069
_symmetry_Int_Tables_number   1
_chemical_formula_structural   Li2VCr(P2O7)2
_chemical_formula_sum   'Li6 V3 Cr3 P12 O42'
_cell_volume   797.65971887
_cell_formula_units_Z   3
loop_
 _symmetry_equiv_pos_site_id
 _symmetry_equiv_pos_as_xyz
  1  'x, y, z'
loop_
 _atom_site_type_symbol
 _atom_site_label
 _atom_site_symmetry_multiplicity
 _atom_site_fract_x
 _atom_site_fract_y
 _atom_site_fract_z
 _atom_site_occupancy
  Li  Li0  1  0.67656300  0.48373200  0.84646400  1
  Li  Li1  1  0.32322600  0.03254700  0.89556300  1
  Li  Li2  1  0.32346600  0.69875200  0.56188300  1
  Li  Li3  1  0.67694400  0.81673400  0.17976800  1
  Li  Li4  1  0.67638300  0.15043000  0.51334200  1
  Li  Li5  1  0.32341600  0.36590400  0.22899600  1
  V  V0  1  0.27103200  0.26169500  0.76090100  1
  V  V1  1  0.27074600  0.59508400  0.09451700  1
  V  V2  1  0.72880000  0.07230800  0.07185700  1
  Cr  Cr0  1  0.72752800  0.73799200  0.73755400  1
  Cr  Cr1  1  0.27193500  0.92828800  0.42858200  1
  Cr  Cr2  1  0.72788500  0.40525700  0.40498200  1
  P  P0  1  0.47882100  0.74634900  0.92637700  1
  P  P1  1  0.08466000  0.54919500  0.83163700  1
  P  P2  1  0.47911100  0.41361500  0.59328000  1
  P  P3  1  0.91424700  0.07221300  0.85699000  1
  P  P4  1  0.91458300  0.73985100  0.52387300  1
  P  P5  1  0.08593900  0.88137800  0.16639900  1
  P  P6  1  0.08564500  0.21501600  0.49806300  1
  P  P7  1  0.52290600  0.01260100  0.69312200  1
  P  P8  1  0.52295200  0.68023300  0.36046900  1
  P  P9  1  0.47708000  0.07987200  0.26070700  1
  P  P10  1  0.91397600  0.40694700  0.19160100  1
  P  P11  1  0.52193600  0.34677200  0.02671800  1
  O  O0  1  0.51756900  0.91308300  0.95022300  1
  O  O1  1  0.07966000  0.50972600  0.94301300  1
  O  O2  1  0.24632000  0.70071000  0.85241900  1
  O  O3  1  0.91583700  0.90987100  0.84478000  1
  O  O4  1  0.60666100  0.68000700  0.85843600  1
  O  O5  1  0.50923600  0.85144400  0.69791800  1
  O  O6  1  0.48232600  0.37097400  0.90807100  1
  O  O7  1  0.14690100  0.43462200  0.75688100  1
  O  O8  1  0.11549700  0.15882600  0.85542100  1
  O  O9  1  0.11624600  0.82703500  0.52077500  1
  O  O10  1  0.88317800  0.58198000  0.77448500  1
  O  O11  1  0.85471600  0.80213700  0.62559900  1
  O  O12  1  0.85120700  0.13471600  0.95786800  1
  O  O13  1  0.51815200  0.58021700  0.61666400  1
  O  O14  1  0.49513600  0.35469500  0.69884800  1
  O  O15  1  0.39352700  0.74738100  0.42691500  1
  O  O16  1  0.39425200  0.08052600  0.76022000  1
  O  O17  1  0.08046600  0.17631600  0.60975800  1
  O  O18  1  0.08414700  0.84348000  0.27831100  1
  O  O19  1  0.24671600  0.36754900  0.51929100  1
  O  O20  1  0.75356600  0.09694200  0.74883100  1
  O  O21  1  0.75422600  0.76403100  0.41568600  1
  O  O22  1  0.91738600  0.57756400  0.51160300  1
  O  O23  1  0.60699200  0.34690300  0.52533000  1
  O  O24  1  0.50948300  0.51883900  0.36486700  1
  O  O25  1  0.48303300  0.70365400  0.24165400  1
  O  O26  1  0.48159500  0.03652500  0.57458200  1
  O  O27  1  0.14895800  0.76770600  0.09105100  1
  O  O28  1  0.14594800  0.09986900  0.42316000  1
  O  O29  1  0.11508300  0.49248900  0.18870000  1
  O  O30  1  0.88390100  0.24844900  0.44126700  1
  O  O31  1  0.88438800  0.91205600  0.10901100  1
  O  O32  1  0.85262100  0.46876800  0.29270700  1
  O  O33  1  0.51828800  0.24635700  0.28415700  1
  O  O34  1  0.49427400  0.68780900  0.03201400  1
  O  O35  1  0.49040200  0.01990900  0.36628500  1
  O  O36  1  0.39409000  0.41552900  0.09398900  1
  O  O37  1  0.24640400  0.03397000  0.18584600  1
  O  O38  1  0.75344400  0.43006900  0.08263300  1
  O  O39  1  0.91796000  0.24440800  0.17933700  1
  O  O40  1  0.60564600  0.01303200  0.19301300  1
  O  O41  1  0.50477700  0.18590100  0.03031400  1
loop_
_geom_bond_atom_site_label_1
_geom_bond_atom_site_label_2
_geom_bond_distance
_geom_bond_site_symmetry_2
Li0 O6 1.989908 1_555
Li0 O4 2.003555 1_555
Li0 O14 2.055880 1_555
Li0 O10 2.077981 1_555
Li0 O1 2.745465 1_655
Li1 O0 1.986966 1_545
Li1 O16 2.011426 1_555
Li1 O41 2.050270 1_556
Li1 O8 2.061307 1_555
Li1 O3 2.776774 1_445
Li2 O13 1.982484 1_555
Li2 O15 2.006067 1_555
Li2 O5 2.065625 1_555
Li2 O9 2.075045 1_555
Li2 O22 2.766010 1_455
Li3 O25 1.992168 1_555
Li3 O40 2.007646 1_565
Li3 O34 2.059284 1_555
Li3 O31 2.060276 1_555
Li3 O18 2.775084 1_655
Li4 O26 1.994973 1_555
Li4 O23 2.003883 1_555
Li4 O35 2.065824 1_555
Li4 O30 2.082574 1_555
Li4 O17 2.751582 1_655
Li5 O33 1.991907 1_555
Li5 O36 2.011525 1_555
Li5 O24 2.066162 1_555
Li5 O29 2.066949 1_555
Li5 O39 2.763398 1_455
Cr0 O11 1.986357 1_555
Cr0 O3 1.992793 1_555
Cr0 O5 2.028562 1_555
Cr0 O10 2.034883 1_555
Cr0 O4 2.042636 1_555
Cr0 O13 2.049810 1_555
Cr1 O28 1.986649 1_565
Cr1 O18 1.990819 1_555
Cr1 O35 2.033679 1_565
Cr1 O9 2.042367 1_555
Cr1 O15 2.045944 1_555
Cr1 O26 2.054678 1_565
Cr2 O32 1.977958 1_555
Cr2 O22 1.995321 1_555
Cr2 O24 2.030969 1_555
Cr2 O23 2.037762 1_555
Cr2 O30 2.041139 1_555
Cr2 O33 2.055392 1_555
O0 P0 1.535222 1_555
O0 V2 2.066324 1_566
O1 P1 1.535369 1_555
O1 V1 2.011425 1_556
O2 P0 1.617951 1_555
O2 P1 1.624498 1_555
O3 P3 1.533475 1_565
O4 P0 1.530029 1_555
O5 P7 1.537675 1_565
O6 P11 1.532913 1_556
O6 V0 2.071405 1_555
O7 P1 1.519926 1_555
O7 V0 1.989804 1_555
O8 P3 1.522001 1_455
O8 V0 2.072525 1_555
O9 P4 1.533152 1_455
O10 P1 1.530150 1_655
O11 P4 1.518618 1_555
O12 P3 1.522369 1_555
O12 V2 1.984343 1_556
O13 P2 1.534024 1_555
O14 P2 1.528986 1_555
O14 V0 2.067479 1_555
O15 P8 1.529977 1_555
O16 P7 1.534072 1_555
O16 V0 2.054960 1_555
O17 P6 1.536708 1_555
O17 V0 2.006763 1_555
O18 P5 1.531544 1_555
O19 P2 1.617495 1_555
O19 P6 1.628814 1_555
O20 P7 1.610526 1_555
O20 P3 1.631011 1_555
O21 P8 1.612001 1_555
O21 P4 1.628035 1_555
O22 P4 1.534603 1_555
O23 P2 1.531801 1_555
O24 P8 1.538949 1_555
O25 P8 1.532364 1_555
O25 V1 2.072421 1_555
O26 P7 1.530295 1_555
O27 P5 1.521706 1_555
O27 V1 1.977500 1_555
O28 P6 1.517102 1_555
O29 P10 1.522850 1_455
O29 V1 2.068402 1_555
O30 P6 1.533108 1_655
O31 P5 1.522797 1_655
O31 V2 2.070055 1_565
O32 P10 1.516311 1_555
O33 P9 1.532415 1_555
O34 P0 1.528236 1_554
O34 V1 2.067024 1_555
O35 P9 1.536015 1_555
O36 P11 1.534373 1_555
O36 V1 2.041514 1_555
O37 P9 1.610906 1_555
O37 P5 1.630680 1_545
O38 P11 1.613097 1_555
O38 P10 1.631702 1_555
O39 P10 1.538696 1_555
O39 V2 1.997473 1_555
O40 P9 1.534036 1_555
O40 V2 2.058787 1_555
O41 P11 1.529561 1_555
O41 V2 2.064710 1_555
