# generated using pymatgen
data_Li4Co3Ni2Sb3O16
_symmetry_space_group_name_H-M   'P 1'
_cell_length_a   5.92566229
_cell_length_b   5.92566229
_cell_length_c   9.70936203
_cell_angle_alpha   89.76380955
_cell_angle_beta   89.76380955
_cell_angle_gamma   60.91839060
_symmetry_Int_Tables_number   1
_chemical_formula_structural   Li4Co3Ni2Sb3O16
_chemical_formula_sum   'Li4 Co3 Ni2 Sb3 O16'
_cell_volume   297.94446073
_cell_formula_units_Z   1
loop_
 _symmetry_equiv_pos_site_id
 _symmetry_equiv_pos_as_xyz
  1  'x, y, z'
loop_
 _atom_site_type_symbol
 _atom_site_label
 _atom_site_symmetry_multiplicity
 _atom_site_fract_x
 _atom_site_fract_y
 _atom_site_fract_z
 _atom_site_occupancy
  Li  Li0  1  0.33058800  0.33058800  0.86466900  1
  Li  Li1  1  0.02398000  0.02398000  0.98883400  1
  Li  Li2  1  0.01607100  0.01607100  0.50729700  1
  Li  Li3  1  0.66705100  0.66705100  0.40422200  1
  Co  Co0  1  0.16716100  0.16716100  0.21672400  1
  Co  Co1  1  0.33743600  0.83009800  0.71512000  1
  Co  Co2  1  0.83009800  0.33743600  0.71512000  1
  Ni  Ni0  1  0.32950100  0.32950100  0.51102200  1
  Ni  Ni1  1  0.65555500  0.65555500  0.97450400  1
  Sb  Sb0  1  0.16616800  0.66158600  0.21556200  1
  Sb  Sb1  1  0.66158600  0.16616800  0.21556200  1
  Sb  Sb2  1  0.82990600  0.82990600  0.71498500  1
  O  O0  1  0.15852900  0.68638200  0.60164700  1
  O  O1  1  0.48625500  0.48625500  0.33502100  1
  O  O2  1  0.32645200  0.32645200  0.10327000  1
  O  O3  1  0.00403900  0.00403900  0.31956700  1
  O  O4  1  0.00463600  0.00463600  0.80972400  1
  O  O5  1  0.68638200  0.15852900  0.60164700  1
  O  O6  1  0.03127700  0.47736100  0.33080300  1
  O  O7  1  0.47736100  0.03127700  0.33080300  1
  O  O8  1  0.84203000  0.84203000  0.09958700  1
  O  O9  1  0.16155600  0.16155600  0.61257000  1
  O  O10  1  0.51120500  0.96170400  0.83496300  1
  O  O11  1  0.96170400  0.51120500  0.83496300  1
  O  O12  1  0.66037600  0.66037600  0.60896700  1
  O  O13  1  0.31435700  0.84317200  0.10746000  1
  O  O14  1  0.51496100  0.51496100  0.82577300  1
  O  O15  1  0.84317200  0.31435700  0.10746000  1
loop_
_geom_bond_atom_site_label_1
_geom_bond_atom_site_label_2
_geom_bond_distance
_geom_bond_site_symmetry_2
Li0 O14 1.919221 1_555
Li0 O11 1.932658 1_455
Li0 O10 1.932658 1_545
Li0 O2 2.316847 1_556
Li1 O4 1.751174 1_555
Li1 O15 1.910309 1_456
Li1 O13 1.910309 1_546
Li1 O8 2.142942 1_446
Li2 O9 1.807811 1_555
Li2 O3 1.827465 1_555
Li2 O5 1.938273 1_455
Li2 O0 1.938273 1_545
Li3 O1 1.968397 1_555
Li3 O12 1.988787 1_555
Li3 O6 2.016280 1_655
Li3 O7 2.016280 1_565
Co0 O3 1.938579 1_555
Co0 O7 1.955659 1_555
Co0 O6 1.955659 1_555
Co0 O2 1.960694 1_555
Co0 O15 1.988315 1_455
Co0 O13 1.988315 1_545
Co1 O4 1.952588 1_565
Co1 O10 1.954580 1_555
Co1 O14 1.957344 1_555
Co1 O12 1.963961 1_555
Co1 O9 1.984399 1_565
Co1 O0 1.989476 1_555
Co2 O4 1.952588 1_655
Co2 O11 1.954580 1_555
Co2 O14 1.957344 1_555
Co2 O12 1.963961 1_555
Co2 O9 1.984399 1_655
Co2 O5 1.989476 1_555
Ni0 O9 1.974718 1_555
Ni0 O5 2.048925 1_555
Ni0 O0 2.048925 1_555
Ni0 O1 2.336314 1_555
Ni0 O6 2.336688 1_555
Ni0 O7 2.336688 1_555
Ni1 O14 2.041589 1_555
Ni1 O11 2.083072 1_555
Ni1 O10 2.083072 1_555
Ni1 O13 2.189857 1_556
Ni1 O15 2.189857 1_556
Ni1 O8 2.264072 1_556
O0 Sb2 2.026423 1_455
O1 Sb1 2.028510 1_555
O1 Sb0 2.028510 1_555
O2 Sb1 2.051907 1_555
O2 Sb0 2.051907 1_555
O3 Sb0 2.043120 1_545
O3 Sb1 2.043120 1_455
O4 Sb2 2.011975 1_445
O5 Sb2 2.026423 1_545
O6 Sb0 1.978230 1_555
O7 Sb1 1.978230 1_555
O8 Sb1 2.027788 1_565
O8 Sb0 2.027788 1_655
O10 Sb2 2.022136 1_555
O11 Sb2 2.022136 1_555
O12 Sb2 2.018918 1_555
O13 Sb0 1.982971 1_555
O15 Sb1 1.982971 1_555
