# generated using pymatgen
data_Ba(AgSn)2
_symmetry_space_group_name_H-M   'P 1'
_cell_length_a   4.85420759
_cell_length_b   4.85420702
_cell_length_c   6.70649760
_cell_angle_alpha   111.21713033
_cell_angle_beta   111.21713303
_cell_angle_gamma   89.99999237
_symmetry_Int_Tables_number   1
_chemical_formula_structural   Ba(AgSn)2
_chemical_formula_sum   'Ba1 Ag2 Sn2'
_cell_volume   135.76127083
_cell_formula_units_Z   1
loop_
 _symmetry_equiv_pos_site_id
 _symmetry_equiv_pos_as_xyz
  1  'x, y, z'
loop_
 _atom_site_type_symbol
 _atom_site_label
 _atom_site_symmetry_multiplicity
 _atom_site_fract_x
 _atom_site_fract_y
 _atom_site_fract_z
 _atom_site_occupancy
  Ba  Ba0  1  -0.00000000  -0.00000000  -0.00000000  1
  Ag  Ag0  1  0.75000000  0.25000000  0.50000000  1
  Ag  Ag1  1  0.25000000  0.75000000  0.50000000  1
  Sn  Sn0  1  0.62545626  0.62545626  0.25091053  1
  Sn  Sn1  1  0.37454374  0.37454374  0.74908947  1
loop_
_geom_bond_atom_site_label_1
_geom_bond_atom_site_label_2
_geom_bond_distance
_geom_bond_site_symmetry_2
Ba0 Sn0 3.724443 1_445
Ba0 Sn1 3.724443 1_554
Ba0 Sn0 3.724449 1_545
Ba0 Sn1 3.724449 1_454
Ba0 Sn0 3.724449 1_455
Ba0 Sn1 3.724449 1_544
Ba0 Sn1 3.724456 1_444
Ba0 Sn0 3.724456 1_555
Ag0 Sn0 2.819652 1_545
Ag0 Sn1 2.819652 1_655
Ag0 Sn0 2.819660 1_555
Ag0 Sn1 2.819661 1_555
Ag0 Ag1 3.432443 1_645
Ag0 Ag1 3.432443 1_555
Ag0 Ag1 3.432443 1_545
Ag0 Ag1 3.432443 1_655
Ag0 Ba0 3.766921 1_656
Ag0 Ba0 3.766921 1_666
Ag0 Ba0 3.766921 1_655
Ag0 Ba0 3.766921 1_555
Ag1 Sn1 2.819652 1_565
Ag1 Sn0 2.819652 1_455
Ag1 Sn1 2.819660 1_555
Ag1 Sn0 2.819661 1_555
Ag1 Ba0 3.766921 1_565
Ag1 Ba0 3.766921 1_555
Ag1 Ba0 3.766921 1_566
Ag1 Ba0 3.766921 1_666
Sn0 Sn1 2.891267 1_554
