# generated using pymatgen
data_NdAl11O18
_symmetry_space_group_name_H-M   'P 1'
_cell_length_a   5.60902540
_cell_length_b   11.67333377
_cell_length_c   5.77178776
_cell_angle_alpha   106.13453297
_cell_angle_beta   59.38509747
_cell_angle_gamma   104.49299501
_symmetry_Int_Tables_number   1
_chemical_formula_structural   NdAl11O18
_chemical_formula_sum   'Nd1 Al11 O18'
_cell_volume   309.71129503
_cell_formula_units_Z   1
loop_
 _symmetry_equiv_pos_site_id
 _symmetry_equiv_pos_as_xyz
  1  'x, y, z'
loop_
 _atom_site_type_symbol
 _atom_site_label
 _atom_site_symmetry_multiplicity
 _atom_site_fract_x
 _atom_site_fract_y
 _atom_site_fract_z
 _atom_site_occupancy
  Nd  Nd0  1  0.50001900  0.49999400  0.99998300  1
  Al  Al0  1  0.08636500  0.78217600  0.09347400  1
  Al  Al1  1  0.00000000  0.99999700  0.00000400  1
  Al  Al2  1  0.08491500  0.77498800  0.58670800  1
  Al  Al3  1  0.58647100  0.79268900  0.09677500  1
  Al  Al4  1  0.35082000  0.05660800  0.35395000  1
  Al  Al5  1  0.46259800  0.37316000  0.45790100  1
  Al  Al6  1  0.53739500  0.62684300  0.54209700  1
  Al  Al7  1  0.64917900  0.94338800  0.64605000  1
  Al  Al8  1  0.41352700  0.20730900  0.90322500  1
  Al  Al9  1  0.91508300  0.22501100  0.41329300  1
  Al  Al10  1  0.91363400  0.21782200  0.90652800  1
  O  O0  1  0.29259000  0.89192100  0.29084300  1
  O  O1  1  0.10981800  0.29438500  0.10058700  1
  O  O2  1  0.27521900  0.89202800  0.80766700  1
  O  O3  1  0.19734000  0.10336400  0.18594000  1
  O  O4  1  0.11054900  0.28700000  0.60408000  1
  O  O5  1  0.40979600  0.70797500  0.37955800  1
  O  O6  1  0.67760700  0.50353400  0.55508100  1
  O  O7  1  0.19252200  0.09741600  0.72601700  1
  O  O8  1  0.38789200  0.69495700  0.90889100  1
  O  O9  1  0.61210600  0.30504300  0.09110900  1
  O  O10  1  0.80747900  0.90258600  0.27398700  1
  O  O11  1  0.32238800  0.49645900  0.44489700  1
  O  O12  1  0.59020200  0.29202700  0.62044900  1
  O  O13  1  0.88945300  0.71300400  0.39592400  1
  O  O14  1  0.80265900  0.89663700  0.81406200  1
  O  O15  1  0.72478100  0.10797400  0.19233600  1
  O  O16  1  0.70740900  0.10808100  0.70915700  1
  O  O17  1  0.89018200  0.70561500  0.89941700  1
loop_
_geom_bond_atom_site_label_1
_geom_bond_atom_site_label_2
_geom_bond_distance
_geom_bond_site_symmetry_2
Nd0 O6 2.240768 1_555
Nd0 O11 2.240785 1_556
Nd0 O12 2.734678 1_555
Nd0 O5 2.734903 1_556
Nd0 O9 2.751182 1_556
Nd0 O8 2.751327 1_555
Nd0 O17 2.781883 1_555
Nd0 O1 2.781891 1_556
Al0 O13 1.814530 1_455
Al0 O8 1.858982 1_554
Al0 O17 1.863031 1_454
Al0 O0 2.016486 1_555
Al0 O10 2.033409 1_455
Al0 O2 2.050298 1_554
Al1 O10 1.898779 1_455
Al1 O7 1.898860 1_564
Al1 O3 1.911695 1_565
Al1 O14 1.911695 1_454
Al1 O2 1.911715 1_554
Al1 O15 1.911781 1_465
Al2 O13 1.824237 1_455
Al2 O5 1.826652 1_555
Al2 O17 1.862295 1_455
Al2 O14 2.053913 1_455
Al2 O2 2.078620 1_555
Al2 O0 2.147061 1_555
Al3 O5 1.839310 1_555
Al3 O17 1.865321 1_554
Al3 O8 1.903887 1_554
Al3 O0 1.915107 1_555
Al3 O14 1.988488 1_554
Al3 O10 1.998702 1_555
Al4 O15 1.821505 1_555
Al4 O7 1.824297 1_555
Al4 O0 1.831082 1_545
Al4 O3 1.832748 1_555
Al5 O6 1.838772 1_555
Al5 O11 1.839146 1_555
Al5 O4 1.844814 1_555
Al5 O9 1.845889 1_555
Al5 O12 1.951036 1_555
Al6 O11 1.838880 1_555
Al6 O6 1.839204 1_555
Al6 O13 1.844852 1_555
Al6 O8 1.845891 1_555
Al6 O5 1.950965 1_555
Al7 O2 1.821488 1_555
Al7 O10 1.824273 1_555
Al7 O16 1.831148 1_565
Al7 O14 1.832725 1_555
Al8 O12 1.839309 1_555
Al8 O1 1.865326 1_556
Al8 O9 1.903894 1_556
Al8 O16 1.915080 1_555
Al8 O3 1.988472 1_556
Al8 O7 1.998659 1_555
Al9 O4 1.824274 1_655
Al9 O12 1.826671 1_555
Al9 O1 1.862288 1_655
Al9 O3 2.053900 1_655
Al9 O15 2.078592 1_555
Al9 O16 2.147032 1_555
Al10 O4 1.814560 1_655
Al10 O9 1.859001 1_556
Al10 O1 1.863048 1_656
Al10 O16 2.016479 1_555
Al10 O7 2.033383 1_655
Al10 O15 2.050269 1_556
O11 O5 2.490448 1_555
O12 O6 2.490402 1_555
