# generated using pymatgen
data_VOF2
_symmetry_space_group_name_H-M   'P 1'
_cell_length_a   5.14975474
_cell_length_b   5.26129948
_cell_length_c   12.49978796
_cell_angle_alpha   92.04401268
_cell_angle_beta   90.55997911
_cell_angle_gamma   119.10462333
_symmetry_Int_Tables_number   1
_chemical_formula_structural   VOF2
_chemical_formula_sum   'V6 O6 F12'
_cell_volume   295.57991288
_cell_formula_units_Z   6
loop_
 _symmetry_equiv_pos_site_id
 _symmetry_equiv_pos_as_xyz
  1  'x, y, z'
loop_
 _atom_site_type_symbol
 _atom_site_label
 _atom_site_symmetry_multiplicity
 _atom_site_fract_x
 _atom_site_fract_y
 _atom_site_fract_z
 _atom_site_occupancy
  V  V0  1  0.31781605  0.64250167  0.66364700  1
  V  V1  1  0.33322403  0.69665448  0.17114782  1
  V  V2  1  0.67165235  0.29628300  0.83667028  1
  V  V3  1  0.68550454  0.36007408  0.33721246  1
  V  V4  1  0.00160117  0.00101790  0.50002047  1
  V  V5  1  0.00830351  0.03308883  0.00496212  1
  O  O0  1  0.22911696  0.30989253  0.08589669  1
  O  O1  1  0.10460915  0.34577168  0.58568629  1
  O  O2  1  0.80496154  0.18860518  0.94391179  1
  O  O3  1  0.58108145  0.01898004  0.75039182  1
  O  O4  1  0.89991016  0.65831345  0.41424720  1
  O  O5  1  0.41859439  0.99374160  0.24525698  1
  F  F0  1  0.72391751  0.82996439  0.11304028  1
  F  F1  1  0.43153562  0.50629925  0.28324092  1
  F  F2  1  0.60871507  0.82285386  0.55190403  1
  F  F3  1  0.87733287  0.13821762  0.38056078  1
  F  F4  1  0.07136050  0.53417755  0.78802403  1
  F  F5  1  0.20614386  0.80047899  0.04264996  1
  F  F6  1  0.92004832  0.47554163  0.21012073  1
  F  F7  1  0.12448031  0.86325026  0.61813485  1
  F  F8  1  0.75196443  0.66223750  0.91700454  1
  F  F9  1  0.39568672  0.17607438  0.44817671  1
  F  F10  1  0.56132817  0.49949470  0.72433890  1
  F  F11  1  0.27111030  0.14648542  0.88375435  1
loop_
_geom_bond_atom_site_label_1
_geom_bond_atom_site_label_2
_geom_bond_distance
_geom_bond_site_symmetry_2
O0 V5 1.642822 1_555
O0 V1 2.082437 1_555
O1 V0 1.671974 1_555
O1 V4 1.905885 1_555
O2 V2 1.733122 1_555
O2 V5 1.791872 1_656
O3 V2 1.650808 1_555
O3 V0 2.035394 1_545
O4 V3 1.671675 1_555
O4 V4 1.899307 1_665
O5 V1 1.647673 1_555
O5 V3 2.039406 1_565
F0 V5 1.931604 1_665
F0 V1 1.938981 1_555
F0 F8 2.603986 1_554
F0 O0 2.635764 1_665
F0 O5 2.685763 1_555
F0 O0 2.688719 1_555
F0 F5 2.715324 1_655
F1 V3 1.938083 1_555
F1 V1 1.949883 1_555
F1 O0 2.638060 1_555
F1 O5 2.656962 1_555
F1 O4 2.663036 1_555
F1 O5 2.689865 1_545
F1 F9 2.693337 1_555
F1 F6 2.706921 1_455
F2 V4 1.901814 1_665
F2 V0 1.961662 1_555
F2 O1 2.641231 1_555
F2 O4 2.676937 1_555
F2 F7 2.679650 1_655
F3 V4 1.915179 1_655
F3 V3 1.946370 1_555
F3 O4 2.631826 1_545
F3 O5 2.665027 1_545
F3 O4 2.699249 1_555
F4 V2 1.935402 1_455
F4 V0 1.936698 1_555
F4 F8 2.609803 1_455
F4 O2 2.619764 1_455
F4 O3 2.677962 1_455
F4 O3 2.685880 1_565
F4 F7 2.719352 1_555
F4 O1 2.720918 1_555
F5 V1 1.922588 1_555
F5 V5 2.000604 1_565
F5 F8 2.580295 1_454
F5 O0 2.660170 1_565
F5 F6 2.709386 1_455
F6 V3 1.934991 1_555
F6 V1 1.941829 1_655
F6 O0 2.646726 1_655
F6 O5 2.649666 1_545
F6 O5 2.701995 1_655
F6 O4 2.715321 1_555
F7 V4 1.899967 1_565
F7 V0 1.955710 1_555
F7 O3 2.624220 1_565
F7 O1 2.635393 1_565
F8 V2 1.991442 1_555
F8 V5 2.017765 1_666
F8 O2 2.655852 1_565
F8 O2 2.667749 1_555
F9 V4 1.907043 1_555
F9 V3 1.954287 1_555
F9 O4 2.654992 1_555
F10 V0 1.911603 1_555
F10 V2 2.029741 1_555
F10 F8 2.546703 1_555
F10 O3 2.610768 1_555
F10 F4 2.654850 1_655
F10 O1 2.675729 1_555
F10 O3 2.692953 1_565
F10 F11 2.697363 1_555
F11 V2 1.922909 1_555
F11 V5 1.949902 1_556
F11 O3 2.605956 1_555
F11 O2 2.630228 1_455
F11 F8 2.651528 1_555
F11 F5 2.655034 1_546
F11 O0 2.684566 1_556
F11 F8 2.698591 1_445
