# generated using pymatgen
data_LiV2O3F
_symmetry_space_group_name_H-M   'P 1'
_cell_length_a   6.00549632
_cell_length_b   6.00549632
_cell_length_c   6.02222867
_cell_angle_alpha   60.70462171
_cell_angle_beta   60.70462171
_cell_angle_gamma   60.12811549
_symmetry_Int_Tables_number   1
_chemical_formula_structural   LiV2O3F
_chemical_formula_sum   'Li2 V4 O6 F2'
_cell_volume   155.35016619
_cell_formula_units_Z   2
loop_
 _symmetry_equiv_pos_site_id
 _symmetry_equiv_pos_as_xyz
  1  'x, y, z'
loop_
 _atom_site_type_symbol
 _atom_site_label
 _atom_site_symmetry_multiplicity
 _atom_site_fract_x
 _atom_site_fract_y
 _atom_site_fract_z
 _atom_site_occupancy
  Li  Li0  1  0.49368400  0.49368400  0.01569500  1
  Li  Li1  1  0.13617800  0.13617800  0.60324600  1
  V  V0  1  0.86973300  0.86973300  0.38827400  1
  V  V1  1  0.00281200  0.47813900  0.00920800  1
  V  V2  1  0.49403300  0.49403300  0.49022200  1
  V  V3  1  0.47813900  0.00281200  0.00920800  1
  O  O0  1  0.26550600  0.74509800  0.25038900  1
  O  O1  1  0.25730100  0.25730100  0.20821100  1
  O  O2  1  0.26553200  0.26553200  0.74795800  1
  O  O3  1  0.74509800  0.26550600  0.25038900  1
  O  O4  1  0.73447100  0.73447100  0.25479100  1
  O  O5  1  0.75145500  0.75145500  0.77862600  1
  F  F0  1  0.25384800  0.72797800  0.75290500  1
  F  F1  1  0.72797800  0.25384800  0.75290500  1
loop_
_geom_bond_atom_site_label_1
_geom_bond_atom_site_label_2
_geom_bond_distance
_geom_bond_site_symmetry_2
Li0 O1 2.039799 1_555
Li0 O0 2.070544 1_555
Li0 O3 2.070544 1_555
Li0 O5 2.211913 1_554
Li1 O1 1.964155 1_555
Li1 O2 1.972976 1_555
O0 V0 1.950297 1_455
O0 V2 1.997599 1_555
O0 V3 2.022213 1_565
O1 V3 1.936211 1_555
O1 V1 1.936211 1_555
O2 V2 1.970361 1_555
O2 V1 2.030963 1_556
O2 V3 2.030963 1_556
O3 V0 1.950297 1_545
O3 V2 1.997599 1_555
O3 V1 2.022213 1_655
O4 V0 1.975166 1_555
O4 V2 2.061579 1_555
O4 V3 2.139748 1_565
O4 V1 2.139748 1_655
O5 V0 1.941566 1_555
O5 V3 2.062467 1_566
O5 V1 2.062467 1_656
F0 Li1 2.014125 1_565
F0 V2 2.116676 1_555
F0 Li0 2.142825 1_556
F0 V1 2.148510 1_556
F1 Li1 2.014125 1_655
F1 V2 2.116676 1_555
F1 Li0 2.142825 1_556
F1 V3 2.148510 1_556
