# generated using pymatgen
data_Co3OF5
_symmetry_space_group_name_H-M   'P 1'
_cell_length_a   4.73155800
_cell_length_b   5.67537138
_cell_length_c   7.83299125
_cell_angle_alpha   86.21050918
_cell_angle_beta   88.69669061
_cell_angle_gamma   88.04059410
_symmetry_Int_Tables_number   1
_chemical_formula_structural   Co3OF5
_chemical_formula_sum   'Co6 O2 F10'
_cell_volume   209.71517644
_cell_formula_units_Z   2
loop_
 _symmetry_equiv_pos_site_id
 _symmetry_equiv_pos_as_xyz
  1  'x, y, z'
loop_
 _atom_site_type_symbol
 _atom_site_label
 _atom_site_symmetry_multiplicity
 _atom_site_fract_x
 _atom_site_fract_y
 _atom_site_fract_z
 _atom_site_occupancy
  Co  Co0  1  0.51386100  0.49784300  0.99363000  1
  Co  Co1  1  0.52541700  0.81431500  0.66042300  1
  Co  Co2  1  0.49434700  0.16543700  0.33453900  1
  Co  Co3  1  0.98675900  0.66638800  0.34281700  1
  Co  Co4  1  0.98030500  0.34119700  0.67595200  1
  Co  Co5  1  0.99672600  0.01541400  0.99426900  1
  O  O0  1  0.79809500  0.61244400  0.57984300  1
  O  O1  1  0.81150600  0.30690000  0.88136600  1
  F  F0  1  0.80514400  0.96649700  0.23284300  1
  F  F1  1  0.69631900  0.46406800  0.23447900  1
  F  F2  1  0.68917300  0.81286800  0.89794100  1
  F  F3  1  0.70520500  0.11354200  0.56201100  1
  F  F4  1  0.30733100  0.85831800  0.43606300  1
  F  F5  1  0.29618900  0.54906600  0.76636300  1
  F  F6  1  0.30548500  0.20438300  0.10167700  1
  F  F7  1  0.20613200  0.04672700  0.75209700  1
  F  F8  1  0.19433100  0.70378100  0.10343400  1
  F  F9  1  0.18767800  0.36080900  0.45024900  1
loop_
_geom_bond_atom_site_label_1
_geom_bond_atom_site_label_2
_geom_bond_distance
_geom_bond_site_symmetry_2
Co0 O1 1.973896 1_555
Co0 F5 2.075772 1_555
Co0 F2 2.083841 1_555
Co0 F8 2.084334 1_556
Co0 F6 2.085724 1_556
Co0 F1 2.087142 1_556
Co1 O0 1.825667 1_555
Co1 F5 2.009168 1_555
Co1 F3 2.024293 1_565
Co1 F2 2.030987 1_555
Co1 F4 2.054874 1_555
Co1 F7 2.115966 1_565
Co2 F0 2.005967 1_545
Co2 F9 2.029629 1_555
Co2 F6 2.044931 1_555
Co2 F3 2.061138 1_555
Co2 F1 2.073918 1_555
Co2 F4 2.084166 1_545
Co3 F0 2.030057 1_555
Co3 O0 2.050806 1_555
Co3 F1 2.053502 1_555
Co3 F4 2.071047 1_655
Co3 F9 2.085749 1_655
Co3 F8 2.098442 1_655
Co4 O1 1.781981 1_555
Co4 O0 1.861568 1_555
Co4 F9 2.000814 1_655
Co4 F7 2.016329 1_655
Co4 F5 2.099134 1_655
Co4 F3 2.116709 1_555
Co5 O1 2.007377 1_555
Co5 F0 2.064600 1_546
Co5 F6 2.067511 1_656
Co5 F2 2.070589 1_545
Co5 F8 2.111116 1_646
Co5 F7 2.119818 1_655
F0 F8 2.562949 1_655
F0 F3 2.787475 1_565
F0 F1 2.853903 1_565
F0 F4 2.873680 1_555
F1 F8 2.872518 1_555
F1 F8 2.895098 1_655
F2 F7 2.828643 1_565
F2 F8 2.872661 1_556
F2 F8 2.937562 1_656
F3 F4 2.659944 1_545
F3 F7 2.786320 1_555
F3 F9 2.812986 1_655
F3 F7 2.828934 1_655
F4 F7 2.785978 1_565
F4 F8 2.870734 1_555
F4 O0 2.880504 1_555
F4 F9 2.893142 1_555
F4 F9 2.897306 1_565
F5 O0 2.781134 1_555
F5 O0 2.801330 1_455
F5 O1 2.813816 1_455
F5 F9 2.825127 1_555
F5 F7 2.837164 1_565
F5 F8 2.862505 1_556
F6 F8 2.865793 1_555
F6 F8 2.906086 1_545
