# generated using pymatgen
data_Na2MnO3
_symmetry_space_group_name_H-M   'P 1'
_cell_length_a   9.89329124
_cell_length_b   9.43963170
_cell_length_c   5.34391705
_cell_angle_alpha   78.71094785
_cell_angle_beta   69.33117866
_cell_angle_gamma   31.97171160
_symmetry_Int_Tables_number   1
_chemical_formula_structural   Na2MnO3
_chemical_formula_sum   'Na8 Mn4 O12'
_cell_volume   241.77245750
_cell_formula_units_Z   4
loop_
 _symmetry_equiv_pos_site_id
 _symmetry_equiv_pos_as_xyz
  1  'x, y, z'
loop_
 _atom_site_type_symbol
 _atom_site_label
 _atom_site_symmetry_multiplicity
 _atom_site_fract_x
 _atom_site_fract_y
 _atom_site_fract_z
 _atom_site_occupancy
  Na  Na0  1  0.99383263  0.99418081  0.50609168  1
  Na  Na1  1  0.42299981  0.42263330  0.57737773  1
  Na  Na2  1  0.82700028  0.82736649  0.67261844  1
  Na  Na3  1  0.25616546  0.25582051  0.74391141  1
  Na  Na4  1  0.74394060  0.74398965  0.25581598  1
  Na  Na5  1  0.67303938  0.67288609  0.82706946  1
  Na  Na6  1  0.57695911  0.57711464  0.42293620  1
  Na  Na7  1  0.50606102  0.50600805  0.99418457  1
  Mn  Mn0  1  0.91583693  0.91580828  0.08414251  1
  Mn  Mn1  1  0.33415991  0.33419767  0.16585547  1
  Mn  Mn2  1  0.16572819  0.16587269  0.33423113  1
  Mn  Mn3  1  0.08427117  0.08412694  0.91577048  1
  O  O0  1  0.15543859  0.65832589  0.29654007  1
  O  O1  1  0.65832410  0.15542312  0.88973722  1
  O  O2  1  0.09456323  0.59167775  0.95345876  1
  O  O3  1  0.59168032  0.09457722  0.36025540  1
  O  O4  1  0.05381296  0.44619796  0.44613528  1
  O  O5  1  0.44606210  0.05392305  0.05386322  1
  O  O6  1  0.36037109  0.95334554  0.59163295  1
  O  O7  1  0.95339864  0.36033396  0.09458272  1
  O  O8  1  0.88962574  0.29665486  0.65836964  1
  O  O9  1  0.29660327  0.88965787  0.15542163  1
  O  O10  1  0.19618883  0.80380122  0.80386139  1
  O  O11  1  0.80393865  0.19607446  0.19613966  1
loop_
_geom_bond_atom_site_label_1
_geom_bond_atom_site_label_2
_geom_bond_distance
_geom_bond_site_symmetry_2
Na0 O11 2.188896 1_565
Na0 O10 2.189702 1_655
Na0 O8 2.280513 1_565
Na0 O9 2.281380 1_655
Na0 O1 2.320283 1_565
Na0 O0 2.321117 1_655
Na1 O2 2.234311 1_555
Na1 O3 2.234483 1_555
Na1 O10 2.352842 1_555
Na1 O11 2.353457 1_555
Na1 O1 2.387579 1_555
Na1 O0 2.390486 1_555
Na1 Na6 2.745448 1_555
Na2 O0 2.234325 1_655
Na2 O1 2.234504 1_565
Na2 O4 2.352837 1_655
Na2 O5 2.353477 1_566
Na2 O3 2.387582 1_565
Na2 O2 2.390511 1_655
Na2 Na5 2.745454 1_555
Na3 O5 2.188905 1_556
Na3 O4 2.189717 1_555
Na3 O6 2.280531 1_545
Na3 O7 2.281404 1_456
Na3 O3 2.320343 1_555
Na3 O2 2.321148 1_555
Na4 O5 2.188581 1_565
Na4 O4 2.189833 1_655
Na4 O2 2.280756 1_654
Na4 O3 2.281356 1_565
Na4 O7 2.319676 1_555
Na4 O6 2.320308 1_555
Na5 O8 2.235137 1_555
Na5 O9 2.235847 1_556
Na5 O4 2.351481 1_655
Na5 O5 2.351756 1_566
Na5 O7 2.388593 1_556
Na5 O6 2.389467 1_555
Na6 O6 2.235119 1_555
Na6 O7 2.235842 1_555
Na6 O10 2.351445 1_555
Na6 O11 2.351776 1_555
Na6 O9 2.388576 1_555
Na6 O8 2.389445 1_555
Na7 O11 2.188587 1_556
Na7 O10 2.189847 1_555
Na7 O0 2.280723 1_556
Na7 O1 2.281327 1_555
Na7 O9 2.319637 1_556
Na7 O8 2.320284 1_555
Mn0 O2 1.939541 1_654
Mn0 O3 1.939638 1_565
Mn0 O10 1.940651 1_654
Mn0 O11 1.940655 1_565
Mn0 O1 1.964070 1_564
Mn0 O0 1.964453 1_655
Mn1 O0 1.939551 1_555
Mn1 O1 1.939677 1_554
Mn1 O4 1.940647 1_555
Mn1 O5 1.940693 1_555
Mn1 O3 1.964084 1_555
Mn1 O2 1.964429 1_554
Mn2 O8 1.939500 1_455
Mn2 O9 1.939637 1_545
Mn2 O4 1.940877 1_555
Mn2 O5 1.940981 1_555
Mn2 O7 1.964400 1_455
Mn2 O6 1.964704 1_545
Mn3 O6 1.939486 1_545
Mn3 O7 1.939596 1_456
Mn3 O10 1.940874 1_545
Mn3 O11 1.940984 1_456
Mn3 O9 1.964417 1_546
Mn3 O8 1.964709 1_455
