# generated using pymatgen
data_TiH14(OF)6
_symmetry_space_group_name_H-M   'P 1'
_cell_length_a   15.69626400
_cell_length_b   6.08746000
_cell_length_c   6.78314482
_cell_angle_alpha   75.09504376
_cell_angle_beta   90.00000000
_cell_angle_gamma   90.00000000
_symmetry_Int_Tables_number   1
_chemical_formula_structural   TiH14(OF)6
_chemical_formula_sum   'Ti2 H28 O12 F12'
_cell_volume   626.32490085
_cell_formula_units_Z   2
loop_
 _symmetry_equiv_pos_site_id
 _symmetry_equiv_pos_as_xyz
  1  'x, y, z'
loop_
 _atom_site_type_symbol
 _atom_site_label
 _atom_site_symmetry_multiplicity
 _atom_site_fract_x
 _atom_site_fract_y
 _atom_site_fract_z
 _atom_site_occupancy
  Ti  Ti0  1  0.50000000  0.00000000  0.50000000  1
  Ti  Ti1  1  0.00000000  0.00000000  0.00000000  1
  H  H0  1  0.05963700  0.67590800  0.74513900  1
  H  H1  1  0.55963700  0.32409200  0.75486100  1
  H  H2  1  0.94036300  0.32409200  0.25486100  1
  H  H3  1  0.44036300  0.67590800  0.24513900  1
  H  H4  1  0.95445000  0.41245700  0.72088400  1
  H  H5  1  0.45445000  0.58754300  0.77911600  1
  H  H6  1  0.04555000  0.58754300  0.27911600  1
  H  H7  1  0.54555000  0.41245700  0.22088400  1
  H  H8  1  0.70347200  0.18368700  0.54536000  1
  H  H9  1  0.20347200  0.81631300  0.95464000  1
  H  H10  1  0.29652800  0.81631300  0.45464000  1
  H  H11  1  0.79652800  0.18368700  0.04536000  1
  H  H12  1  0.41898200  0.46597500  0.59593400  1
  H  H13  1  0.91898200  0.53402500  0.90406600  1
  H  H14  1  0.58101800  0.53402500  0.40406600  1
  H  H15  1  0.08101800  0.46597500  0.09593400  1
  H  H16  1  0.80455800  0.74058400  0.62644200  1
  H  H17  1  0.30455800  0.25941600  0.87355800  1
  H  H18  1  0.19544200  0.25941600  0.37355800  1
  H  H19  1  0.69544200  0.74058400  0.12644200  1
  H  H20  1  0.20296400  0.18233200  0.30510300  1
  H  H21  1  0.70296400  0.81766800  0.19489700  1
  H  H22  1  0.79703600  0.81766800  0.69489700  1
  H  H23  1  0.29703600  0.18233200  0.80510300  1
  H  H24  1  0.10487900  0.65868800  0.71873200  1
  H  H25  1  0.60487900  0.34131200  0.78126800  1
  H  H26  1  0.89512100  0.34131200  0.28126800  1
  H  H27  1  0.39512100  0.65868800  0.21873200  1
  O  O0  1  0.60542100  0.18932900  0.43681600  1
  O  O1  1  0.10542100  0.81067100  0.06318400  1
  O  O2  1  0.39457900  0.81067100  0.56318400  1
  O  O3  1  0.89457900  0.18932900  0.93681600  1
  O  O4  1  0.90422100  0.42203700  0.81241500  1
  O  O5  1  0.40422100  0.57796300  0.68758500  1
  O  O6  1  0.09577900  0.57796300  0.18758500  1
  O  O7  1  0.59577900  0.42203700  0.31241500  1
  O  O8  1  0.54173400  0.93139400  0.78530100  1
  O  O9  1  0.04173400  0.06860600  0.71469900  1
  O  O10  1  0.45826600  0.06860600  0.21469900  1
  O  O11  1  0.95826600  0.93139400  0.28530100  1
  F  F0  1  0.55709700  0.72866200  0.47387500  1
  F  F1  1  0.05709700  0.27133800  0.02612500  1
  F  F2  1  0.44290300  0.27133800  0.52612500  1
  F  F3  1  0.94290300  0.72866200  0.97387500  1
  F  F4  1  0.24912600  0.79127300  0.37307800  1
  F  F5  1  0.74912600  0.20872700  0.12692200  1
  F  F6  1  0.75087400  0.20872700  0.62692200  1
  F  F7  1  0.25087400  0.79127300  0.87307800  1
  F  F8  1  0.52690700  0.68948500  0.88957000  1
  F  F9  1  0.02690700  0.31051500  0.61043000  1
  F  F10  1  0.47309300  0.31051500  0.11043000  1
  F  F11  1  0.97309300  0.68948500  0.38957000  1
loop_
_geom_bond_atom_site_label_1
_geom_bond_atom_site_label_2
_geom_bond_distance
_geom_bond_site_symmetry_2
H0 H24 0.746336 1_555
H1 H25 0.746336 1_555
H2 H26 0.746336 1_555
H4 O4 1.014441 1_555
H5 O5 1.014441 1_555
H6 O6 1.014441 1_555
H7 O7 1.014441 1_555
H8 O0 1.702613 1_555
H9 O1 1.702613 1_556
H10 O2 1.702613 1_555
H11 O3 1.702613 1_554
H12 O5 1.059688 1_555
H13 O4 1.059688 1_555
H14 O7 1.059688 1_555
H15 O6 1.059688 1_555
H16 H22 0.749555 1_555
H17 H23 0.749555 1_555
H18 H20 0.749555 1_555
H19 H21 0.749555 1_555
H27 H3 0.746336 1_555
O0 O7 1.458346 1_555
O0 Ti0 1.998998 1_555
O1 O6 1.458346 1_555
O1 Ti1 1.998998 1_565
O2 O5 1.458346 1_555
O2 Ti0 1.998998 1_565
O3 O4 1.458346 1_555
O3 Ti1 1.998998 1_656
O8 Ti0 1.983155 1_565
O9 Ti1 1.983155 1_556
O10 Ti0 1.983155 1_555
O11 Ti1 1.983155 1_665
F0 H14 1.434463 1_555
F0 Ti0 1.927040 1_565
F1 H15 1.434463 1_555
F1 Ti1 1.927040 1_555
F2 H12 1.434463 1_555
F2 Ti0 1.927040 1_555
F3 H13 1.434463 1_555
F3 Ti1 1.927040 1_666
F4 H10 0.962438 1_555
F5 H11 0.962438 1_555
F6 H8 0.962438 1_555
F7 H9 0.962438 1_555
F8 O8 1.478912 1_555
F8 H5 1.574512 1_555
F9 O9 1.478912 1_555
F9 H4 1.574512 1_455
F10 O10 1.478912 1_555
F10 H7 1.574512 1_555
F11 O11 1.478912 1_555
F11 H6 1.574512 1_655
