# generated using pymatgen
data_K5NaP3(HO4)3
_symmetry_space_group_name_H-M   'P 1'
_cell_length_a   5.92890600
_cell_length_b   10.08055300
_cell_length_c   22.77759800
_cell_angle_alpha   90.00000000
_cell_angle_beta   90.00000000
_cell_angle_gamma   90.00000000
_symmetry_Int_Tables_number   1
_chemical_formula_structural   K5NaP3(HO4)3
_chemical_formula_sum   'K20 Na4 P12 H12 O48'
_cell_volume   1361.34075404
_cell_formula_units_Z   4
loop_
 _symmetry_equiv_pos_site_id
 _symmetry_equiv_pos_as_xyz
  1  'x, y, z'
loop_
 _atom_site_type_symbol
 _atom_site_label
 _atom_site_symmetry_multiplicity
 _atom_site_fract_x
 _atom_site_fract_y
 _atom_site_fract_z
 _atom_site_occupancy
  K  K0  1  0.74920600  0.59832000  0.45124400  1
  K  K1  1  0.24920600  0.40168000  0.54875600  1
  K  K2  1  0.24920600  0.09832000  0.04875600  1
  K  K3  1  0.74920600  0.90168000  0.95124400  1
  K  K4  1  0.74250800  0.62186900  0.09371800  1
  K  K5  1  0.24250800  0.37813100  0.90628200  1
  K  K6  1  0.24250800  0.12186900  0.40628200  1
  K  K7  1  0.74250800  0.87813100  0.59371800  1
  K  K8  1  0.74233900  0.34992600  0.33301100  1
  K  K9  1  0.24233900  0.65007400  0.66698900  1
  K  K10  1  0.24233900  0.84992600  0.16698900  1
  K  K11  1  0.74233900  0.15007400  0.83301100  1
  K  K12  1  0.78311200  0.26644100  0.15858400  1
  K  K13  1  0.28311200  0.73355900  0.84141600  1
  K  K14  1  0.28311200  0.76644100  0.34141600  1
  K  K15  1  0.78311200  0.23355900  0.65858400  1
  K  K16  1  0.80235900  0.99778900  0.28151400  1
  K  K17  1  0.30235900  0.00221100  0.71848600  1
  K  K18  1  0.30235900  0.49778900  0.21848600  1
  K  K19  1  0.80235900  0.50221100  0.78151400  1
  Na  Na0  1  0.75531600  0.25301700  0.48575400  1
  Na  Na1  1  0.25531600  0.74698300  0.51424600  1
  Na  Na2  1  0.25531600  0.75301700  0.01424600  1
  Na  Na3  1  0.75531600  0.24698300  0.98575400  1
  P  P0  1  0.74711500  0.94993700  0.08740500  1
  P  P1  1  0.24711500  0.05006300  0.91259500  1
  P  P2  1  0.24711500  0.44993700  0.41259500  1
  P  P3  1  0.74711500  0.55006300  0.58740500  1
  P  P4  1  0.74625000  0.92870000  0.42542700  1
  P  P5  1  0.24625000  0.07130000  0.57457300  1
  P  P6  1  0.24625000  0.42870000  0.07457300  1
  P  P7  1  0.74625000  0.57130000  0.92542700  1
  P  P8  1  0.80080200  0.64446800  0.24030800  1
  P  P9  1  0.30080200  0.35553200  0.75969200  1
  P  P10  1  0.30080200  0.14446800  0.25969200  1
  P  P11  1  0.80080200  0.85553200  0.74030800  1
  H  H0  1  0.70454200  0.86682500  0.17703900  1
  H  H1  1  0.20454200  0.13317500  0.82296100  1
  H  H2  1  0.20454200  0.36682500  0.32296100  1
  H  H3  1  0.70454200  0.63317500  0.67703900  1
  H  H4  1  0.97646000  0.98722000  0.49903800  1
  H  H5  1  0.47646000  0.01278000  0.50096200  1
  H  H6  1  0.47646000  0.48722000  0.00096200  1
  H  H7  1  0.97646000  0.51278000  0.99903800  1
  H  H8  1  0.75298200  0.69946100  0.33308700  1
  H  H9  1  0.25298200  0.30053900  0.66691300  1
  H  H10  1  0.25298200  0.19946100  0.16691300  1
  H  H11  1  0.75298200  0.80053900  0.83308700  1
  O  O0  1  0.73929900  0.95783800  0.15916200  1
  O  O1  1  0.23929900  0.04216200  0.84083800  1
  O  O2  1  0.23929900  0.45783800  0.34083800  1
  O  O3  1  0.73929900  0.54216200  0.65916200  1
  O  O4  1  0.75326300  0.09441100  0.06636800  1
  O  O5  1  0.25326300  0.90558900  0.93363200  1
  O  O6  1  0.25326300  0.59441100  0.43363200  1
  O  O7  1  0.75326300  0.40558900  0.56636800  1
  O  O8  1  0.53311600  0.87524100  0.06776900  1
  O  O9  1  0.03311600  0.12475900  0.93223100  1
  O  O10  1  0.03311600  0.37524100  0.43223100  1
  O  O11  1  0.53311600  0.62475900  0.56776900  1
  O  O12  1  0.96262000  0.87246500  0.07071000  1
  O  O13  1  0.46262000  0.12753500  0.92929000  1
  O  O14  1  0.46262000  0.37246500  0.42929000  1
  O  O15  1  0.96262000  0.62753500  0.57071000  1
  O  O16  1  0.95035400  0.90512200  0.47269000  1
  O  O17  1  0.45035400  0.09487800  0.52731000  1
  O  O18  1  0.45035400  0.40512200  0.02731000  1
  O  O19  1  0.95035400  0.59487800  0.97269000  1
  O  O20  1  0.75745900  0.07419800  0.40611700  1
  O  O21  1  0.25745900  0.92580200  0.59388300  1
  O  O22  1  0.25745900  0.57419800  0.09388300  1
  O  O23  1  0.75745900  0.42580200  0.90611700  1
  O  O24  1  0.79687300  0.82731700  0.37692600  1
  O  O25  1  0.29687300  0.17268300  0.62307400  1
  O  O26  1  0.29687300  0.32731700  0.12307400  1
  O  O27  1  0.79687300  0.67268300  0.87692600  1
  O  O28  1  0.52103600  0.89721000  0.45753500  1
  O  O29  1  0.02103600  0.10279000  0.54246500  1
  O  O30  1  0.02103600  0.39721000  0.04246500  1
  O  O31  1  0.52103600  0.60279000  0.95753500  1
  O  O32  1  0.71185200  0.62087900  0.30811400  1
  O  O33  1  0.21185200  0.37912100  0.69188600  1
  O  O34  1  0.21185200  0.12087900  0.19188600  1
  O  O35  1  0.71185200  0.87912100  0.80811400  1
  O  O36  1  0.80170700  0.50590100  0.21302900  1
  O  O37  1  0.30170700  0.49409900  0.78697100  1
  O  O38  1  0.30170700  0.00590100  0.28697100  1
  O  O39  1  0.80170700  0.99409900  0.71302900  1
  O  O40  1  0.62467100  0.73608900  0.21016800  1
  O  O41  1  0.12467100  0.26391100  0.78983200  1
  O  O42  1  0.12467100  0.23608900  0.28983200  1
  O  O43  1  0.62467100  0.76391100  0.71016800  1
  O  O44  1  0.03036000  0.71197500  0.24483300  1
  O  O45  1  0.53036000  0.28802500  0.75516700  1
  O  O46  1  0.53036000  0.21197500  0.25516700  1
  O  O47  1  0.03036000  0.78802500  0.74483300  1
loop_
_geom_bond_atom_site_label_1
_geom_bond_atom_site_label_2
_geom_bond_distance
_geom_bond_site_symmetry_2
K0 O10 2.842162 1_655
K0 O24 2.876487 1_555
K0 O14 2.884563 1_555
K0 O11 2.959225 1_555
K0 O6 2.967900 1_555
K0 O15 3.015360 1_555
K0 O6 3.015568 1_655
K0 O7 3.263644 1_555
K0 O28 3.305847 1_555
K0 O16 3.350506 1_555
K1 O11 2.842162 1_555
K1 O25 2.876487 1_555
K1 O15 2.884563 1_455
K1 O10 2.959225 1_555
K1 O7 2.967900 1_455
K1 O14 3.015360 1_555
K1 O7 3.015568 1_555
K1 O6 3.263644 1_555
K1 O29 3.305847 1_555
K1 O17 3.350506 1_555
K2 O8 2.842162 1_545
K2 O26 2.876487 1_555
K2 O12 2.884563 1_445
K2 O9 2.959225 1_554
K2 O4 2.967900 1_455
K2 O13 3.015360 1_554
K2 O4 3.015568 1_555
K2 O5 3.263644 1_544
K2 O30 3.305847 1_555
K2 O18 3.350506 1_555
K3 O9 2.842162 1_665
K3 O27 2.876487 1_555
K3 O13 2.884563 1_565
K3 O8 2.959225 1_556
K3 O5 2.967900 1_555
K3 O12 3.015360 1_556
K3 O5 3.015568 1_655
K3 O4 3.263644 1_566
K3 O31 3.305847 1_555
K3 O19 3.350506 1_555
K4 O12 2.891219 1_555
K4 O8 2.900718 1_555
K4 O22 2.915686 1_555
K4 O40 2.974782 1_555
K4 O36 2.979136 1_555
K4 O19 3.031854 1_554
K4 O30 3.036229 1_655
K4 O22 3.090686 1_655
K4 O18 3.172109 1_555
K5 O13 2.891219 1_555
K5 O9 2.900718 1_555
K5 O23 2.915686 1_455
K5 O41 2.974782 1_555
K5 O37 2.979136 1_555
K5 O18 3.031854 1_556
K5 O31 3.036229 1_555
K5 O23 3.090686 1_555
K5 O19 3.172109 1_455
K6 O14 2.891219 1_555
K6 O10 2.900718 1_555
K6 O20 2.915686 1_455
K6 O42 2.974782 1_555
K6 O38 2.979136 1_555
K6 O17 3.031854 1_555
K6 O28 3.036229 1_545
K6 O20 3.090686 1_555
K6 O16 3.172109 1_445
K7 O15 2.891219 1_555
K7 O11 2.900718 1_555
K7 O21 2.915686 1_555
K7 O43 2.974782 1_555
K7 O39 2.979136 1_555
K7 O16 3.031854 1_555
K7 O29 3.036229 1_665
K7 O21 3.090686 1_655
K7 O17 3.172109 1_565
K8 O46 2.580168 1_555
K8 O42 2.724441 1_655
K8 O14 2.758854 1_555
K8 O32 2.795456 1_555
K8 O10 2.853915 1_655
K8 O36 3.172510 1_555
K8 O20 3.241362 1_555
K9 O47 2.580168 1_555
K9 O43 2.724441 1_555
K9 O15 2.758854 1_455
K9 O33 2.795456 1_555
K9 O11 2.853915 1_555
K9 O37 3.172510 1_555
K9 O21 3.241362 1_555
K10 O44 2.580168 1_555
K10 O40 2.724441 1_555
K10 O12 2.758854 1_455
K10 O34 2.795456 1_565
K10 O8 2.853915 1_555
K10 O38 3.172510 1_565
K10 O22 3.241362 1_555
K11 O45 2.580168 1_555
K11 O41 2.724441 1_655
K11 O13 2.758854 1_555
K11 O35 2.795456 1_545
K11 O9 2.853915 1_655
K11 O39 3.172510 1_545
K11 O23 3.241362 1_555
K12 O36 2.716050 1_555
K12 O46 2.717861 1_555
K12 O4 2.729569 1_555
K12 O34 3.031508 1_655
K12 O26 3.056420 1_555
K12 O0 3.121743 1_545
K12 O30 3.274622 1_655
K13 O37 2.716050 1_555
K13 O47 2.717861 1_555
K13 O5 2.729569 1_555
K13 O35 3.031508 1_555
K13 O27 3.056420 1_455
K13 O1 3.121743 1_565
K13 O31 3.274622 1_555
K14 O38 2.716050 1_565
K14 O44 2.717861 1_555
K14 O6 2.729569 1_555
K14 O32 3.031508 1_555
K14 O24 3.056420 1_455
K14 O2 3.121743 1_555
K14 O28 3.274622 1_555
K15 O39 2.716050 1_545
K15 O45 2.717861 1_555
K15 O7 2.729569 1_555
K15 O33 3.031508 1_655
K15 O25 3.056420 1_555
K15 O3 3.121743 1_555
K15 O29 3.274622 1_655
K16 O46 2.760901 1_565
K16 O24 2.770772 1_555
K16 O0 2.840546 1_555
K16 O20 2.952843 1_565
K16 O38 2.964324 1_665
K16 O38 2.972045 1_565
K16 O42 3.075419 1_665
K16 O44 3.290368 1_655
K16 O34 3.406145 1_665
K17 O47 2.760901 1_545
K17 O25 2.770772 1_555
K17 O1 2.840546 1_555
K17 O21 2.952843 1_545
K17 O39 2.964324 1_545
K17 O39 2.972045 1_445
K17 O43 3.075419 1_545
K17 O45 3.290368 1_555
K17 O35 3.406145 1_545
K18 O44 2.760901 1_555
K18 O26 2.770772 1_555
K18 O2 2.840546 1_555
K18 O22 2.952843 1_555
K18 O36 2.964324 1_555
K18 O36 2.972045 1_455
K18 O40 3.075419 1_555
K18 O46 3.290368 1_555
K18 O32 3.406145 1_555
K19 O45 2.760901 1_555
K19 O27 2.770772 1_555
K19 O3 2.840546 1_555
K19 O23 2.952843 1_555
K19 O37 2.964324 1_655
K19 O37 2.972045 1_555
K19 O41 3.075419 1_655
K19 O47 3.290368 1_655
K19 O33 3.406145 1_655
Na0 O10 2.391041 1_655
Na0 O7 2.395251 1_555
Na0 O14 2.472944 1_555
Na0 O29 2.538482 1_655
Na0 O20 2.557320 1_555
Na0 O17 2.589670 1_555
Na1 O11 2.391041 1_555
Na1 O6 2.395251 1_555
Na1 O15 2.472944 1_455
Na1 O28 2.538482 1_555
Na1 O21 2.557320 1_555
Na1 O16 2.589670 1_455
Na2 O8 2.391041 1_555
Na2 O5 2.395251 1_554
Na2 O12 2.472944 1_455
Na2 O31 2.538482 1_554
Na2 O22 2.557320 1_555
Na2 O19 2.589670 1_454
Na3 O9 2.391041 1_655
Na3 O4 2.395251 1_556
Na3 O13 2.472944 1_555
Na3 O30 2.538482 1_656
Na3 O23 2.557320 1_555
Na3 O18 2.589670 1_556
H0 O0 1.024699 1_555
H0 O40 1.590756 1_555
H0 K10 2.755174 1_555
H0 K16 2.782474 1_555
H0 K4 3.122485 1_555
H1 O1 1.024699 1_555
H1 O41 1.590756 1_555
H1 K11 2.755174 1_455
H1 K17 2.782474 1_555
H1 K5 3.122485 1_555
H2 O2 1.024699 1_555
H2 O42 1.590756 1_555
H2 K8 2.755174 1_455
H2 K18 2.782474 1_555
H2 K6 3.122485 1_555
H3 O3 1.024699 1_555
H3 O43 1.590756 1_555
H3 K9 2.755174 1_555
H3 K19 2.782474 1_555
H3 K7 3.122485 1_555
H4 O16 1.033944 1_555
H4 O29 1.550980 1_665
H4 K7 2.790005 1_555
H4 K6 2.965505 1_665
H5 O17 1.033944 1_555
H5 O28 1.550980 1_545
H5 K6 2.790005 1_555
H5 K7 2.965505 1_545
H6 O18 1.033944 1_555
H6 O31 1.550980 1_554
H6 K5 2.790005 1_554
H6 K4 2.965505 1_555
H7 O19 1.033944 1_555
H7 O30 1.550980 1_656
H7 K4 2.790005 1_556
H7 K5 2.965505 1_655
H8 O32 1.005251 1_555
H8 O24 1.651052 1_555
H8 K14 2.872742 1_555
H8 K0 2.878067 1_555
H9 O33 1.005251 1_555
H9 O25 1.651052 1_555
H9 K15 2.872742 1_455
H9 K1 2.878067 1_555
H10 O34 1.005251 1_555
H10 O26 1.651052 1_555
H10 K12 2.872742 1_455
H10 K2 2.878067 1_555
H11 O35 1.005251 1_555
H11 O27 1.651052 1_555
H11 K13 2.872742 1_555
H11 K3 2.878067 1_555
O0 P0 1.637048 1_555
O1 P1 1.637048 1_555
O2 P2 1.637048 1_555
O3 P3 1.637048 1_555
O4 P0 1.533614 1_545
O5 P1 1.533614 1_565
O6 P2 1.533614 1_555
O7 P3 1.533614 1_555
O8 P0 1.541694 1_555
O9 P1 1.541694 1_555
O10 P2 1.541694 1_555
O11 P3 1.541694 1_555
O12 P0 1.545007 1_555
O13 P1 1.545007 1_555
O14 P2 1.545007 1_555
O15 P3 1.545007 1_555
O16 P4 1.637009 1_555
O17 P5 1.637009 1_555
O18 P6 1.637009 1_555
O19 P7 1.637009 1_555
O20 P4 1.532671 1_545
O21 P5 1.532671 1_565
O22 P6 1.532671 1_555
O23 P7 1.532671 1_555
O24 P4 1.534602 1_555
O25 P5 1.534602 1_555
O26 P6 1.534602 1_555
O27 P7 1.534602 1_555
O28 P4 1.555179 1_555
O29 P5 1.555179 1_555
O30 P6 1.555179 1_555
O31 P7 1.555179 1_555
O32 P8 1.649248 1_555
O33 P9 1.649248 1_555
O34 P10 1.649248 1_555
O35 P11 1.649248 1_555
O36 P8 1.528805 1_555
O37 P9 1.528805 1_555
O38 P10 1.528805 1_555
O39 P11 1.528805 1_555
O40 P8 1.553967 1_555
O41 P9 1.553967 1_555
O42 P10 1.553967 1_555
O43 P11 1.553967 1_555
O44 P8 1.525159 1_455
O45 P9 1.525159 1_555
O46 P10 1.525159 1_555
O47 P11 1.525159 1_455
