# generated using pymatgen
data_Na7(FeO4)2
_symmetry_space_group_name_H-M   'P 1'
_cell_length_a   5.88404100
_cell_length_b   9.14751564
_cell_length_c   18.07970992
_cell_angle_alpha   89.76104949
_cell_angle_beta   89.11774492
_cell_angle_gamma   89.46241800
_symmetry_Int_Tables_number   1
_chemical_formula_structural   Na7(FeO4)2
_chemical_formula_sum   'Na28 Fe8 O32'
_cell_volume   972.96268093
_cell_formula_units_Z   4
loop_
 _symmetry_equiv_pos_site_id
 _symmetry_equiv_pos_as_xyz
  1  'x, y, z'
loop_
 _atom_site_type_symbol
 _atom_site_label
 _atom_site_symmetry_multiplicity
 _atom_site_fract_x
 _atom_site_fract_y
 _atom_site_fract_z
 _atom_site_occupancy
  Na  Na0  1  0.90663100  0.83624100  0.88948200  1
  Na  Na1  1  0.87880800  0.00407400  0.72018800  1
  Na  Na2  1  0.90735300  0.66604700  0.38946400  1
  Na  Na3  1  0.77777600  0.19525000  0.86414700  1
  Na  Na4  1  0.87819700  0.49654200  0.21961300  1
  Na  Na5  1  0.83321500  0.89810800  0.54049000  1
  Na  Na6  1  0.77975200  0.30646100  0.36459400  1
  Na  Na7  1  0.83021000  0.60244600  0.04052600  1
  Na  Na8  1  0.73218100  0.55404800  0.54176400  1
  Na  Na9  1  0.56847600  0.53684800  0.86203600  1
  Na  Na10  1  0.61238300  0.33664300  0.68679200  1
  Na  Na11  1  0.73180600  0.94634700  0.04153000  1
  Na  Na12  1  0.56438700  0.96367900  0.36268700  1
  Na  Na13  1  0.60443700  0.15991100  0.18529500  1
  Na  Na14  1  0.39556300  0.84008900  0.81470500  1
  Na  Na15  1  0.43561300  0.03632100  0.63731300  1
  Na  Na16  1  0.26819400  0.05365300  0.95847000  1
  Na  Na17  1  0.38761700  0.66335700  0.31320800  1
  Na  Na18  1  0.43152400  0.46315200  0.13796400  1
  Na  Na19  1  0.26781900  0.44595200  0.45823600  1
  Na  Na20  1  0.16979000  0.39755400  0.95947400  1
  Na  Na21  1  0.22024800  0.69353900  0.63540600  1
  Na  Na22  1  0.16678500  0.10189200  0.45951000  1
  Na  Na23  1  0.12180300  0.50345800  0.78038700  1
  Na  Na24  1  0.22222400  0.80475000  0.13585300  1
  Na  Na25  1  0.09264700  0.33395300  0.61053600  1
  Na  Na26  1  0.12119200  0.99592600  0.27981200  1
  Na  Na27  1  0.09336900  0.16375900  0.11051800  1
  Fe  Fe0  1  0.71475000  0.66926100  0.70294000  1
  Fe  Fe1  1  0.70628100  0.21846100  0.52244200  1
  Fe  Fe2  1  0.71810200  0.82787100  0.20276800  1
  Fe  Fe3  1  0.70656200  0.28254500  0.02273600  1
  Fe  Fe4  1  0.29343800  0.71745500  0.97726400  1
  Fe  Fe5  1  0.28189800  0.17212900  0.79723200  1
  Fe  Fe6  1  0.29371900  0.78153900  0.47755800  1
  Fe  Fe7  1  0.28525000  0.33073900  0.29706000  1
  O  O0  1  0.90787100  0.14745000  0.98972100  1
  O  O1  1  0.88827000  0.52258300  0.66740100  1
  O  O2  1  0.87649700  0.75365300  0.77224500  1
  O  O3  1  0.90736000  0.35187700  0.48932500  1
  O  O4  1  0.79269100  0.13446800  0.60630100  1
  O  O5  1  0.89368900  0.97056000  0.16644600  1
  O  O6  1  0.89746000  0.75133000  0.26976400  1
  O  O7  1  0.76176200  0.41718200  0.95290700  1
  O  O8  1  0.78890300  0.36427000  0.10769700  1
  O  O9  1  0.75805300  0.08507200  0.45190600  1
  O  O10  1  0.63401600  0.81568000  0.64462000  1
  O  O11  1  0.62316900  0.68944500  0.14433200  1
  O  O12  1  0.54262800  0.81658900  0.94600300  1
  O  O13  1  0.54436500  0.09179900  0.76770200  1
  O  O14  1  0.45327700  0.58279600  0.72963000  1
  O  O15  1  0.45687900  0.31679700  0.55495500  1
  O  O16  1  0.54312100  0.68320300  0.44504500  1
  O  O17  1  0.54672300  0.41720400  0.27037000  1
  O  O18  1  0.45563500  0.90820100  0.23229800  1
  O  O19  1  0.45737200  0.18341100  0.05399700  1
  O  O20  1  0.37683100  0.31055500  0.85566800  1
  O  O21  1  0.36598400  0.18432000  0.35538000  1
  O  O22  1  0.24194700  0.91492800  0.54809400  1
  O  O23  1  0.21109700  0.63573000  0.89230300  1
  O  O24  1  0.23823800  0.58281800  0.04709300  1
  O  O25  1  0.10254000  0.24867000  0.73023600  1
  O  O26  1  0.10631100  0.02944000  0.83355400  1
  O  O27  1  0.20730900  0.86553200  0.39369900  1
  O  O28  1  0.09264000  0.64812300  0.51067500  1
  O  O29  1  0.12350300  0.24634700  0.22775500  1
  O  O30  1  0.11173000  0.47741700  0.33259900  1
  O  O31  1  0.09212900  0.85255000  0.01027900  1
loop_
_geom_bond_atom_site_label_1
_geom_bond_atom_site_label_2
_geom_bond_distance
_geom_bond_site_symmetry_2
Na0 O2 2.263267 1_555
Na0 O26 2.348124 1_665
Na0 O12 2.366896 1_555
Na0 O31 2.462216 1_656
Na0 O23 2.552767 1_655
Na1 O13 2.275631 1_555
Na1 O4 2.432993 1_555
Na1 O2 2.472984 1_545
Na1 O26 2.478112 1_655
Na1 O25 2.615001 1_655
Na1 O10 2.652922 1_545
Na2 O6 2.298791 1_555
Na2 O30 2.327718 1_655
Na2 O16 2.357166 1_555
Na2 O28 2.466824 1_655
Na2 O27 2.552754 1_655
Na3 O13 2.436007 1_555
Na3 O0 2.443474 1_555
Na3 O26 2.502487 1_655
Na3 O20 2.581631 1_555
Na3 O7 2.593156 1_555
Na3 O25 3.101160 1_655
Na4 O17 2.266893 1_555
Na4 O8 2.428854 1_555
Na4 O30 2.484069 1_655
Na4 O6 2.508542 1_555
Na4 O11 2.685367 1_555
Na4 O29 2.699031 1_655
Na5 O10 2.328833 1_555
Na5 O9 2.381255 1_565
Na5 O22 2.417412 1_655
Na5 O4 2.479987 1_565
Na5 O28 2.787347 1_655
Na5 O16 3.152439 1_555
Na6 O17 2.416569 1_555
Na6 O3 2.426450 1_555
Na6 O9 2.565434 1_555
Na6 O30 2.571148 1_655
Na6 O21 2.696030 1_555
Na6 O29 3.217231 1_655
Na7 O11 2.358730 1_555
Na7 O7 2.366123 1_554
Na7 O24 2.410590 1_655
Na7 O8 2.501902 1_555
Na7 O31 2.817466 1_655
Na7 O12 3.101610 1_554
Na8 O3 2.308728 1_555
Na8 O28 2.355513 1_655
Na8 O16 2.389378 1_555
Na8 O1 2.477866 1_555
Na8 O15 2.727762 1_555
Na8 O10 3.081829 1_555
Na9 O7 2.282560 1_555
Na9 O23 2.339341 1_555
Na9 O20 2.370571 1_555
Na9 O14 2.530401 1_555
Na9 O12 2.982263 1_555
Na9 O2 3.131040 1_555
Na10 O1 2.383369 1_555
Na10 O14 2.549324 1_555
Na10 O4 2.569381 1_555
Na10 O15 2.574002 1_555
Na10 O13 2.699598 1_555
Na10 O25 3.098956 1_655
Na10 O25 3.198691 1_555
Na11 O0 2.307865 1_564
Na11 O31 2.341686 1_655
Na11 O12 2.394142 1_554
Na11 O5 2.476150 1_555
Na11 O19 2.699644 1_565
Na11 O11 3.056281 1_555
Na12 O9 2.286672 1_565
Na12 O21 2.326417 1_565
Na12 O27 2.351552 1_555
Na12 O18 2.507360 1_555
Na12 O16 2.963753 1_555
Na12 O6 3.207945 1_555
Na13 O5 2.438180 1_545
Na13 O19 2.546684 1_555
Na13 O8 2.571040 1_555
Na13 O18 2.605563 1_545
Na13 O17 2.831903 1_555
Na13 O29 3.019706 1_555
Na13 O29 3.265766 1_655
Na14 O26 2.438180 1_565
Na14 O12 2.546684 1_555
Na14 O23 2.571040 1_555
Na14 O13 2.605563 1_565
Na14 O14 2.831903 1_555
Na14 O2 3.019706 1_555
Na14 O2 3.265766 1_455
Na15 O22 2.286672 1_545
Na15 O10 2.326417 1_545
Na15 O4 2.351552 1_555
Na15 O13 2.507360 1_555
Na15 O15 2.963753 1_555
Na15 O25 3.207945 1_555
Na16 O31 2.307865 1_546
Na16 O0 2.341686 1_455
Na16 O19 2.394142 1_556
Na16 O26 2.476150 1_555
Na16 O12 2.699644 1_545
Na16 O20 3.056281 1_555
Na17 O30 2.383369 1_555
Na17 O17 2.549324 1_555
Na17 O27 2.569381 1_555
Na17 O16 2.574002 1_555
Na17 O18 2.699598 1_555
Na17 O6 3.098956 1_455
Na17 O6 3.198691 1_555
Na18 O24 2.282560 1_555
Na18 O8 2.339341 1_555
Na18 O11 2.370571 1_555
Na18 O17 2.530401 1_555
Na18 O19 2.982263 1_555
Na18 O29 3.131040 1_555
Na19 O28 2.308728 1_555
Na19 O3 2.355513 1_455
Na19 O15 2.389378 1_555
Na19 O30 2.477866 1_555
Na19 O16 2.727762 1_555
Na19 O21 3.081829 1_555
Na20 O20 2.358730 1_555
Na20 O24 2.366123 1_556
Na20 O7 2.410590 1_455
Na20 O23 2.501902 1_555
Na20 O0 2.817466 1_455
Na20 O19 3.101610 1_556
Na21 O14 2.416569 1_555
Na21 O28 2.426450 1_555
Na21 O22 2.565434 1_555
Na21 O1 2.571148 1_455
Na21 O10 2.696030 1_555
Na21 O2 3.217231 1_455
Na22 O21 2.328833 1_555
Na22 O22 2.381255 1_545
Na22 O9 2.417412 1_455
Na22 O27 2.479987 1_545
Na22 O3 2.787347 1_455
Na22 O15 3.152439 1_555
Na23 O14 2.266893 1_555
Na23 O23 2.428854 1_555
Na23 O1 2.484069 1_455
Na23 O25 2.508542 1_555
Na23 O20 2.685367 1_555
Na23 O2 2.699031 1_455
Na24 O18 2.436007 1_555
Na24 O31 2.443474 1_555
Na24 O5 2.502487 1_455
Na24 O11 2.581631 1_555
Na24 O24 2.593156 1_555
Na24 O6 3.101160 1_455
Na25 O25 2.298791 1_555
Na25 O1 2.327718 1_455
Na25 O15 2.357166 1_555
Na25 O3 2.466824 1_455
Na25 O4 2.552754 1_455
Na26 O18 2.275631 1_555
Na26 O27 2.432993 1_555
Na26 O29 2.472984 1_565
Na26 O5 2.478112 1_455
Na26 O6 2.615001 1_455
Na26 O21 2.652922 1_565
Na27 O29 2.263267 1_555
Na27 O5 2.348124 1_445
Na27 O19 2.366896 1_555
Na27 O0 2.462216 1_454
Na27 O8 2.552767 1_455
Fe0 O10 1.767219 1_555
Fe0 O2 1.769281 1_555
Fe0 O1 1.793554 1_555
Fe0 O14 1.795066 1_555
Fe1 O4 1.776015 1_555
Fe1 O9 1.789410 1_555
Fe1 O3 1.801938 1_555
Fe1 O15 1.805907 1_555
Fe2 O11 1.753349 1_555
Fe2 O6 1.757721 1_555
Fe2 O18 1.779510 1_555
Fe2 O5 1.788744 1_555
Fe3 O8 1.786735 1_555
Fe3 O7 1.788324 1_554
Fe3 O0 1.800952 1_554
Fe3 O19 1.812955 1_555
Fe4 O23 1.786735 1_555
Fe4 O24 1.788324 1_556
Fe4 O31 1.800952 1_556
Fe4 O12 1.812955 1_555
Fe5 O20 1.753349 1_555
Fe5 O25 1.757721 1_555
Fe5 O13 1.779510 1_555
Fe5 O26 1.788744 1_555
Fe6 O27 1.776015 1_555
Fe6 O22 1.789410 1_555
Fe6 O28 1.801938 1_555
Fe6 O16 1.805907 1_555
Fe7 O21 1.767219 1_555
Fe7 O29 1.769281 1_555
Fe7 O30 1.793554 1_555
Fe7 O17 1.795066 1_555
