# generated using pymatgen
data_LiMnPO4
_symmetry_space_group_name_H-M   'P 1'
_cell_length_a   15.41853835
_cell_length_b   15.41853835
_cell_length_c   7.85145400
_cell_angle_alpha   90.00000000
_cell_angle_beta   90.00000000
_cell_angle_gamma   120.00000150
_symmetry_Int_Tables_number   1
_chemical_formula_structural   LiMnPO4
_chemical_formula_sum   'Li18 Mn18 P18 O72'
_cell_volume   1616.46805466
_cell_formula_units_Z   18
loop_
 _symmetry_equiv_pos_site_id
 _symmetry_equiv_pos_as_xyz
  1  'x, y, z'
loop_
 _atom_site_type_symbol
 _atom_site_label
 _atom_site_symmetry_multiplicity
 _atom_site_fract_x
 _atom_site_fract_y
 _atom_site_fract_z
 _atom_site_occupancy
  Li  Li0  1  0.31760700  0.00464900  0.49305300  1
  Li  Li1  1  0.34800200  0.34118000  0.57739100  1
  Li  Li2  1  0.65882000  0.00682100  0.57739100  1
  Li  Li3  1  0.66666700  0.33333300  0.70307600  1
  Li  Li4  1  0.00000000  0.00000000  0.87236000  1
  Li  Li5  1  0.00000000  0.00000000  0.37236000  1
  Li  Li6  1  0.66666700  0.33333300  0.19730400  1
  Li  Li7  1  0.99535100  0.31295700  0.49305300  1
  Li  Li8  1  0.00682100  0.34800200  0.07739100  1
  Li  Li9  1  0.68704300  0.68239300  0.49305300  1
  Li  Li10  1  0.31295700  0.31760700  0.99305300  1
  Li  Li11  1  0.99317900  0.65199800  0.57739100  1
  Li  Li12  1  0.00464900  0.68704300  0.99305300  1
  Li  Li13  1  0.33333300  0.66666700  0.20307600  1
  Li  Li14  1  0.33333300  0.66666700  0.69730400  1
  Li  Li15  1  0.34118000  0.99317900  0.07739100  1
  Li  Li16  1  0.65199800  0.65882000  0.07739100  1
  Li  Li17  1  0.68239300  0.99535100  0.99305300  1
  Mn  Mn0  1  0.22306500  0.09393700  0.79577400  1
  Mn  Mn1  1  0.53000100  0.10633800  0.76391300  1
  Mn  Mn2  1  0.44616100  0.24793000  0.27519000  1
  Mn  Mn3  1  0.75207000  0.19823100  0.27519000  1
  Mn  Mn4  1  0.57633700  0.46999900  0.76391300  1
  Mn  Mn5  1  0.90606300  0.12912700  0.79577400  1
  Mn  Mn6  1  0.89366200  0.42366300  0.76391300  1
  Mn  Mn7  1  0.12912700  0.22306500  0.29577400  1
  Mn  Mn8  1  0.80176900  0.55383900  0.27519000  1
  Mn  Mn9  1  0.19823100  0.44616100  0.77519000  1
  Mn  Mn10  1  0.87087300  0.77693500  0.79577400  1
  Mn  Mn11  1  0.10633800  0.57633700  0.26391300  1
  Mn  Mn12  1  0.09393700  0.87087300  0.29577400  1
  Mn  Mn13  1  0.42366300  0.53000100  0.26391300  1
  Mn  Mn14  1  0.24793000  0.80176900  0.77519000  1
  Mn  Mn15  1  0.55383900  0.75207000  0.77519000  1
  Mn  Mn16  1  0.46999900  0.89366200  0.26391300  1
  Mn  Mn17  1  0.77693500  0.90606300  0.29577400  1
  P  P0  1  0.22536700  0.09468800  0.20514800  1
  P  P1  1  0.52711000  0.10647800  0.36015700  1
  P  P2  1  0.44406100  0.24601600  0.86175600  1
  P  P3  1  0.75398400  0.19804400  0.86175600  1
  P  P4  1  0.57936800  0.47289000  0.36015700  1
  P  P5  1  0.90531200  0.13067900  0.20514800  1
  P  P6  1  0.89352200  0.42063200  0.36015700  1
  P  P7  1  0.80195600  0.55593900  0.86175600  1
  P  P8  1  0.13067900  0.22536700  0.70514800  1
  P  P9  1  0.86932100  0.77463300  0.20514800  1
  P  P10  1  0.19804400  0.44406100  0.36175600  1
  P  P11  1  0.10647800  0.57936800  0.86015700  1
  P  P12  1  0.09468800  0.86932100  0.70514800  1
  P  P13  1  0.42063200  0.52711000  0.86015700  1
  P  P14  1  0.24601600  0.80195600  0.36175600  1
  P  P15  1  0.55593900  0.75398400  0.36175600  1
  P  P16  1  0.47289000  0.89352200  0.86015700  1
  P  P17  1  0.77463300  0.90531200  0.70514800  1
  O  O0  1  0.12530300  0.02132700  0.29733500  1
  O  O1  1  0.23368200  0.04425400  0.03943900  1
  O  O2  1  0.22672200  0.19407700  0.16054500  1
  O  O3  1  0.31443200  0.11585100  0.32530100  1
  O  O4  1  0.45528100  0.01941400  0.24046300  1
  O  O5  1  0.35216400  0.22745700  0.75003800  1
  O  O6  1  0.44229900  0.14624800  0.89978900  1
  O  O7  1  0.46871700  0.09999400  0.52599700  1
  O  O8  1  0.43885500  0.29632500  0.02980800  1
  O  O9  1  0.56021700  0.20904100  0.27296700  1
  O  O10  1  0.62078100  0.09652300  0.40158000  1
  O  O11  1  0.47574100  0.37921900  0.40158000  1
  O  O12  1  0.80592300  0.03264500  0.16054500  1
  O  O13  1  0.54256600  0.31937200  0.76407400  1
  O  O14  1  0.68062800  0.22319400  0.76407400  1
  O  O15  1  0.70367500  0.14253000  0.02980800  1
  O  O16  1  0.77254300  0.12470700  0.75003800  1
  O  O17  1  0.88414900  0.19858100  0.32530100  1
  O  O18  1  0.56413300  0.54471900  0.24046300  1
  O  O19  1  0.63127800  0.53128300  0.52599700  1
  O  O20  1  0.95574600  0.18942800  0.03943900  1
  O  O21  1  0.97867300  0.10397500  0.29733500  1
  O  O22  1  0.64882400  0.43978300  0.27296700  1
  O  O23  1  0.79095900  0.35117600  0.27296700  1
  O  O24  1  0.85375200  0.29605100  0.89978900  1
  O  O25  1  0.03264500  0.22672200  0.66054500  1
  O  O26  1  0.70394900  0.55770100  0.89978900  1
  O  O27  1  0.10397500  0.12530300  0.79733500  1
  O  O28  1  0.77680600  0.45743400  0.76407400  1
  O  O29  1  0.90000600  0.36872200  0.52599700  1
  O  O30  1  0.18942800  0.23368200  0.53943900  1
  O  O31  1  0.85747000  0.56114500  0.02980800  1
  O  O32  1  0.90347700  0.52425900  0.40158000  1
  O  O33  1  0.98058600  0.43586700  0.24046300  1
  O  O34  1  0.12470700  0.35216400  0.25003800  1
  O  O35  1  0.80141900  0.68556800  0.32530100  1
  O  O36  1  0.19858100  0.31443200  0.82530100  1
  O  O37  1  0.87529300  0.64783600  0.75003800  1
  O  O38  1  0.01941400  0.56413300  0.74046300  1
  O  O39  1  0.09652300  0.47574100  0.90158000  1
  O  O40  1  0.14253000  0.43885500  0.52980800  1
  O  O41  1  0.81057200  0.76631800  0.03943900  1
  O  O42  1  0.09999400  0.63127800  0.02599700  1
  O  O43  1  0.22319400  0.54256600  0.26407400  1
  O  O44  1  0.89602500  0.87469700  0.29733500  1
  O  O45  1  0.29605100  0.44229900  0.39978900  1
  O  O46  1  0.96735500  0.77327800  0.16054500  1
  O  O47  1  0.14624800  0.70394900  0.39978900  1
  O  O48  1  0.20904100  0.64882400  0.77296700  1
  O  O49  1  0.35117600  0.56021700  0.77296700  1
  O  O50  1  0.02132700  0.89602500  0.79733500  1
  O  O51  1  0.04425400  0.81057200  0.53943900  1
  O  O52  1  0.36872200  0.46871700  0.02599700  1
  O  O53  1  0.43586700  0.45528100  0.74046300  1
  O  O54  1  0.11585100  0.80141900  0.82530100  1
  O  O55  1  0.22745700  0.87529300  0.25003800  1
  O  O56  1  0.29632500  0.85747000  0.52980800  1
  O  O57  1  0.31937200  0.77680600  0.26407400  1
  O  O58  1  0.45743400  0.68062800  0.26407400  1
  O  O59  1  0.19407700  0.96735500  0.66054500  1
  O  O60  1  0.52425900  0.62078100  0.90158000  1
  O  O61  1  0.37921900  0.90347700  0.90158000  1
  O  O62  1  0.43978300  0.79095900  0.77296700  1
  O  O63  1  0.56114500  0.70367500  0.52980800  1
  O  O64  1  0.53128300  0.90000600  0.02599700  1
  O  O65  1  0.55770100  0.85375200  0.39978900  1
  O  O66  1  0.64783600  0.77254300  0.25003800  1
  O  O67  1  0.54471900  0.98058600  0.74046300  1
  O  O68  1  0.68556800  0.88414900  0.82530100  1
  O  O69  1  0.77327800  0.80592300  0.66054500  1
  O  O70  1  0.76631800  0.95574600  0.53943900  1
  O  O71  1  0.87469700  0.97867300  0.79733500  1
loop_
_geom_bond_atom_site_label_1
_geom_bond_atom_site_label_2
_geom_bond_distance
_geom_bond_site_symmetry_2
Li0 O7 2.057017 1_555
Li0 O59 2.143013 1_545
Li0 O56 2.143821 1_545
Li0 O3 2.181934 1_555
Li0 O55 2.603508 1_545
Li0 O4 2.829778 1_555
Li1 O53 2.046048 1_555
Li1 O30 2.182071 1_555
Li1 O11 2.230109 1_555
Li1 O5 2.242468 1_555
Li1 O45 2.503145 1_555
Li2 O67 2.046051 1_545
Li2 O70 2.182060 1_545
Li2 O10 2.230132 1_555
Li2 O16 2.242474 1_555
Li2 O65 2.503135 1_545
Li3 O14 1.877518 1_555
Li3 O28 1.877527 1_555
Li3 O13 1.877533 1_555
Li4 O50 1.884767 1_545
Li4 O27 1.884776 1_555
Li4 O71 1.884781 1_445
Li5 O21 1.884767 1_455
Li5 O44 1.884776 1_445
Li5 O0 1.884781 1_555
Li6 O23 1.890494 1_555
Li6 O9 1.890499 1_555
Li6 O22 1.890508 1_555
Li7 O29 2.057017 1_555
Li7 O25 2.143002 1_655
Li7 O40 2.143827 1_655
Li7 O17 2.181927 1_555
Li7 O34 2.603506 1_655
Li7 O33 2.829789 1_555
Li8 O33 2.046039 1_455
Li8 O20 2.182074 1_455
Li8 O39 2.230114 1_554
Li8 O34 2.242480 1_555
Li8 O24 2.503133 1_454
Li9 O19 2.057017 1_555
Li9 O69 2.143011 1_555
Li9 O63 2.143837 1_555
Li9 O35 2.181921 1_555
Li9 O66 2.603516 1_555
Li9 O18 2.829783 1_555
Li10 O52 2.057017 1_556
Li10 O2 2.143011 1_556
Li10 O8 2.143837 1_556
Li10 O36 2.181921 1_555
Li10 O5 2.603516 1_555
Li10 O53 2.829783 1_555
Li11 O38 2.046039 1_655
Li11 O51 2.182074 1_655
Li11 O32 2.230114 1_555
Li11 O37 2.242480 1_555
Li11 O47 2.503133 1_655
Li12 O42 2.057017 1_556
Li12 O46 2.143002 1_456
Li12 O31 2.143827 1_456
Li12 O54 2.181927 1_555
Li12 O37 2.603506 1_455
Li12 O38 2.829789 1_555
Li13 O57 1.877518 1_555
Li13 O43 1.877527 1_555
Li13 O58 1.877533 1_555
Li14 O48 1.890494 1_555
Li14 O62 1.890499 1_555
Li14 O49 1.890508 1_555
Li15 O4 2.046051 1_565
Li15 O1 2.182060 1_565
Li15 O61 2.230132 1_554
Li15 O55 2.242474 1_555
Li15 O6 2.503135 1_564
Li16 O18 2.046048 1_555
Li16 O41 2.182071 1_555
Li16 O60 2.230109 1_554
Li16 O66 2.242468 1_555
Li16 O26 2.503145 1_554
Li17 O64 2.057017 1_556
Li17 O12 2.143013 1_566
Li17 O15 2.143821 1_566
Li17 O68 2.181934 1_555
Li17 O16 2.603508 1_565
Li17 O67 2.829778 1_555
Mn0 O5 2.057047 1_555
Mn0 O59 2.064925 1_545
Mn0 O1 2.097393 1_556
Mn0 O27 2.119825 1_555
Mn1 O6 2.043874 1_555
Mn1 O67 2.069969 1_545
Mn1 O7 2.073492 1_555
Mn1 O14 2.110829 1_555
Mn2 O3 2.071480 1_555
Mn2 O8 2.089339 1_555
Mn2 O11 2.089797 1_555
Mn2 O9 2.122945 1_555
Mn3 O17 2.071480 1_555
Mn3 O15 2.089339 1_555
Mn3 O10 2.089792 1_555
Mn3 O23 2.122945 1_555
Mn4 O26 2.043874 1_555
Mn4 O53 2.069969 1_555
Mn4 O19 2.073495 1_555
Mn4 O13 2.110829 1_555
Mn5 O16 2.057054 1_555
Mn5 O25 2.064929 1_655
Mn5 O20 2.097397 1_556
Mn5 O71 2.119795 1_545
Mn6 O24 2.043874 1_555
Mn6 O38 2.069969 1_655
Mn6 O29 2.073499 1_555
Mn6 O28 2.110829 1_555
Mn7 O34 2.057039 1_555
Mn7 O2 2.064938 1_555
Mn7 O30 2.097399 1_555
Mn7 O21 2.119805 1_455
Mn8 O35 2.071480 1_555
Mn8 O31 2.089339 1_555
Mn8 O32 2.089783 1_555
Mn8 O22 2.122945 1_555
Mn9 O36 2.071480 1_555
Mn9 O40 2.089339 1_555
Mn9 O39 2.089783 1_555
Mn9 O49 2.122945 1_555
Mn10 O37 2.057039 1_555
Mn10 O69 2.064938 1_555
Mn10 O41 2.097399 1_556
Mn10 O50 2.119805 1_655
Mn11 O47 2.043874 1_555
Mn11 O33 2.069969 1_455
Mn11 O42 2.073499 1_555
Mn11 O43 2.110829 1_555
Mn12 O55 2.057054 1_555
Mn12 O46 2.064929 1_455
Mn12 O51 2.097397 1_555
Mn12 O0 2.119795 1_565
Mn13 O45 2.043874 1_555
Mn13 O18 2.069969 1_555
Mn13 O52 2.073495 1_555
Mn13 O58 2.110829 1_555
Mn14 O54 2.071480 1_555
Mn14 O56 2.089339 1_555
Mn14 O61 2.089792 1_555
Mn14 O48 2.122945 1_555
Mn15 O68 2.071480 1_555
Mn15 O63 2.089339 1_555
Mn15 O60 2.089797 1_555
Mn15 O62 2.122945 1_555
Mn16 O65 2.043874 1_555
Mn16 O4 2.069969 1_565
Mn16 O64 2.073492 1_555
Mn16 O57 2.110829 1_555
Mn17 O66 2.057047 1_555
Mn17 O12 2.064925 1_565
Mn17 O70 2.097393 1_555
Mn17 O44 2.119825 1_555
O0 P0 1.561583 1_555
O1 P0 1.553567 1_555
O2 P0 1.561861 1_555
O3 P0 1.560178 1_555
O4 P1 1.557259 1_555
O5 P2 1.566357 1_555
O6 P2 1.553838 1_555
O7 P1 1.557566 1_555
O8 P2 1.552855 1_554
O9 P1 1.556506 1_555
O10 P1 1.561068 1_555
O11 P4 1.561077 1_555
O12 P5 1.561861 1_555
O13 P2 1.567289 1_555
O14 P3 1.567298 1_555
O15 P3 1.552850 1_554
O16 P3 1.566344 1_555
O17 P5 1.560178 1_555
O18 P4 1.557259 1_555
O19 P4 1.557570 1_555
O20 P5 1.553567 1_555
O21 P5 1.561592 1_555
O22 P4 1.556506 1_555
O23 P6 1.556506 1_555
O24 P3 1.553845 1_555
O25 P8 1.561861 1_555
O26 P7 1.553853 1_555
O27 P8 1.561579 1_555
O28 P7 1.567285 1_555
O29 P6 1.557575 1_555
O30 P8 1.553567 1_555
O31 P7 1.552847 1_554
O32 P6 1.561083 1_555
O33 P6 1.557259 1_555
O34 P10 1.566353 1_555
O35 P9 1.560178 1_555
O36 P8 1.560178 1_555
O37 P7 1.566353 1_555
O38 P11 1.557259 1_555
O39 P11 1.561083 1_555
O40 P10 1.552847 1_555
O41 P9 1.553567 1_555
O42 P11 1.557575 1_554
O43 P10 1.567285 1_555
O44 P9 1.561579 1_555
O45 P10 1.553853 1_555
O46 P9 1.561861 1_555
O47 P14 1.553845 1_555
O48 P11 1.556506 1_555
O49 P13 1.556506 1_555
O50 P12 1.561592 1_555
O51 P12 1.553567 1_555
O52 P13 1.557570 1_554
O53 P13 1.557259 1_555
O54 P12 1.560178 1_555
O55 P14 1.566344 1_555
O56 P14 1.552850 1_555
O57 P14 1.567298 1_555
O58 P15 1.567289 1_555
O59 P12 1.561861 1_555
O60 P13 1.561077 1_555
O61 P16 1.561068 1_555
O62 P16 1.556506 1_555
O63 P15 1.552855 1_555
O64 P16 1.557566 1_554
O65 P15 1.553838 1_555
O66 P15 1.566357 1_555
O67 P16 1.557259 1_555
O68 P17 1.560178 1_555
O69 P17 1.561861 1_555
O70 P17 1.553567 1_555
O71 P17 1.561583 1_555
