# generated using pymatgen
data_Li2Mn3CrO8
_symmetry_space_group_name_H-M   'P 1'
_cell_length_a   5.88468277
_cell_length_b   5.88468277
_cell_length_c   9.44447800
_cell_angle_alpha   90.00000000
_cell_angle_beta   90.00000000
_cell_angle_gamma   120.00000871
_symmetry_Int_Tables_number   1
_chemical_formula_structural   Li2Mn3CrO8
_chemical_formula_sum   'Li4 Mn6 Cr2 O16'
_cell_volume   283.24005206
_cell_formula_units_Z   2
loop_
 _symmetry_equiv_pos_site_id
 _symmetry_equiv_pos_as_xyz
  1  'x, y, z'
loop_
 _atom_site_type_symbol
 _atom_site_label
 _atom_site_symmetry_multiplicity
 _atom_site_fract_x
 _atom_site_fract_y
 _atom_site_fract_z
 _atom_site_occupancy
  Li  Li0  1  0.33333300  0.66666700  0.89215500  1
  Li  Li1  1  0.00000000  0.00000000  0.99777700  1
  Li  Li2  1  0.00000000  0.00000000  0.49777700  1
  Li  Li3  1  0.66666700  0.33333300  0.39215500  1
  Mn  Mn0  1  0.17072300  0.82927700  0.21487300  1
  Mn  Mn1  1  0.17072300  0.34144600  0.21487300  1
  Mn  Mn2  1  0.65855400  0.82927700  0.21487300  1
  Mn  Mn3  1  0.34144600  0.17072300  0.71487300  1
  Mn  Mn4  1  0.82927700  0.65855400  0.71487300  1
  Mn  Mn5  1  0.82927700  0.17072300  0.71487300  1
  Cr  Cr0  1  0.33333300  0.66666700  0.48845100  1
  Cr  Cr1  1  0.66666700  0.33333300  0.98845100  1
  O  O0  1  0.16180000  0.83820000  0.60240200  1
  O  O1  1  0.03986300  0.51993200  0.33784500  1
  O  O2  1  0.33333300  0.66666700  0.10110800  1
  O  O3  1  0.00000000  0.00000000  0.30874200  1
  O  O4  1  0.00000000  0.00000000  0.80874200  1
  O  O5  1  0.16180000  0.32360100  0.60240200  1
  O  O6  1  0.48006800  0.96013700  0.33784500  1
  O  O7  1  0.48006800  0.51993200  0.33784500  1
  O  O8  1  0.32360100  0.16180000  0.10240200  1
  O  O9  1  0.67639900  0.83820000  0.60240200  1
  O  O10  1  0.51993200  0.48006800  0.83784500  1
  O  O11  1  0.51993200  0.03986300  0.83784500  1
  O  O12  1  0.66666700  0.33333300  0.60110800  1
  O  O13  1  0.83820000  0.67639900  0.10240200  1
  O  O14  1  0.96013700  0.48006800  0.83784500  1
  O  O15  1  0.83820000  0.16180000  0.10240200  1
loop_
_geom_bond_atom_site_label_1
_geom_bond_atom_site_label_2
_geom_bond_distance
_geom_bond_site_symmetry_2
Li0 O11 1.969865 1_565
Li0 O14 1.969865 1_455
Li0 O10 1.969875 1_555
Li0 O2 1.973452 1_556
Li1 O4 1.785337 1_555
Li1 O15 1.922529 1_456
Li1 O8 1.922534 1_556
Li1 O13 1.922534 1_446
Li2 O3 1.785337 1_555
Li2 O0 1.922529 1_545
Li2 O5 1.922534 1_555
Li2 O9 1.922534 1_445
Li3 O1 1.969865 1_655
Li3 O6 1.969865 1_545
Li3 O7 1.969875 1_555
Li3 O12 1.973452 1_555
Mn0 O3 1.952928 1_565
Mn0 O1 1.963131 1_555
Mn0 O6 1.963131 1_555
Mn0 O2 1.975213 1_555
Mn0 O13 2.001577 1_455
Mn0 O8 2.001577 1_565
Mn1 O3 1.952928 1_555
Mn1 O7 1.963132 1_555
Mn1 O1 1.963136 1_555
Mn1 O2 1.975217 1_555
Mn1 O15 2.001578 1_455
Mn1 O8 2.001582 1_555
Mn2 O3 1.952928 1_665
Mn2 O7 1.963132 1_555
Mn2 O6 1.963136 1_555
Mn2 O2 1.975217 1_555
Mn2 O15 2.001578 1_565
Mn2 O13 2.001582 1_555
Mn3 O4 1.952928 1_555
Mn3 O10 1.963132 1_555
Mn3 O11 1.963136 1_555
Mn3 O12 1.975217 1_555
Mn3 O0 2.001578 1_545
Mn3 O5 2.001582 1_555
Mn4 O4 1.952928 1_665
Mn4 O10 1.963132 1_555
Mn4 O14 1.963136 1_555
Mn4 O12 1.975217 1_555
Mn4 O0 2.001578 1_655
Mn4 O9 2.001582 1_555
Mn5 O4 1.952928 1_655
Mn5 O11 1.963131 1_555
Mn5 O14 1.963131 1_555
Mn5 O12 1.975213 1_555
Mn5 O9 2.001577 1_545
Mn5 O5 2.001577 1_655
Cr0 O9 2.053045 1_555
Cr0 O5 2.053045 1_555
Cr0 O0 2.053045 1_555
Cr0 O6 2.063988 1_555
Cr0 O1 2.063988 1_555
Cr0 O7 2.063988 1_555
Cr1 O13 2.053045 1_556
Cr1 O8 2.053045 1_556
Cr1 O15 2.053045 1_556
Cr1 O14 2.063988 1_555
Cr1 O11 2.063988 1_555
Cr1 O10 2.063988 1_555
