# generated using pymatgen
data_Li2V(CO3)2
_symmetry_space_group_name_H-M   'P 1'
_cell_length_a   7.87448800
_cell_length_b   7.87817910
_cell_length_c   8.48053355
_cell_angle_alpha   68.81162711
_cell_angle_beta   68.82049406
_cell_angle_gamma   76.89730135
_symmetry_Int_Tables_number   1
_chemical_formula_structural   Li2V(CO3)2
_chemical_formula_sum   'Li8 V4 C8 O24'
_cell_volume   454.59968335
_cell_formula_units_Z   4
loop_
 _symmetry_equiv_pos_site_id
 _symmetry_equiv_pos_as_xyz
  1  'x, y, z'
loop_
 _atom_site_type_symbol
 _atom_site_label
 _atom_site_symmetry_multiplicity
 _atom_site_fract_x
 _atom_site_fract_y
 _atom_site_fract_z
 _atom_site_occupancy
  Li  Li0  1  0.65764600  0.26458900  0.77126100  1
  Li  Li1  1  0.45205800  0.61811600  0.79837400  1
  Li  Li2  1  0.07313800  0.07446900  0.78462800  1
  Li  Li3  1  0.18078600  0.74339300  0.60039600  1
  Li  Li4  1  0.54794200  0.38188400  0.20162600  1
  Li  Li5  1  0.34235400  0.73541100  0.22873900  1
  Li  Li6  1  0.81921400  0.25660700  0.39960400  1
  Li  Li7  1  0.92686200  0.92553100  0.21537200  1
  V  V0  1  0.24419500  0.25413200  0.00423000  1
  V  V1  1  0.50000000  0.00000000  0.50000000  1
  V  V2  1  0.75580500  0.74586800  0.99577000  1
  V  V3  1  0.00000000  0.50000000  0.50000000  1
  C  C0  1  0.38069200  0.89079300  0.91043200  1
  C  C1  1  0.62986300  0.62927700  0.41340200  1
  C  C2  1  0.37013700  0.37072300  0.58659800  1
  C  C3  1  0.88057200  0.37888200  0.91110500  1
  C  C4  1  0.61930800  0.10920700  0.08956800  1
  C  C5  1  0.13585900  0.12938700  0.41489700  1
  C  C6  1  0.86414100  0.87061300  0.58510300  1
  C  C7  1  0.11942800  0.62111800  0.08889500  1
  O  O0  1  0.69649200  0.03664900  0.96248800  1
  O  O1  1  0.50848400  0.75362600  0.92769700  1
  O  O2  1  0.19778000  0.54887400  0.96079400  1
  O  O3  1  0.73777800  0.00752700  0.56840600  1
  O  O4  1  0.42091700  0.31980800  0.72820400  1
  O  O5  1  0.32405900  0.94261700  0.77243700  1
  O  O6  1  0.01632400  0.25011500  0.92088400  1
  O  O7  1  0.54774300  0.70794000  0.53648100  1
  O  O8  1  0.45225700  0.29206000  0.46351900  1
  O  O9  1  0.24031400  0.50357600  0.56597800  1
  O  O10  1  0.67594100  0.05738300  0.22756300  1
  O  O11  1  0.92273100  0.81131500  0.72220100  1
  O  O12  1  0.57908300  0.68019200  0.27179600  1
  O  O13  1  0.81968800  0.42977200  0.77524100  1
  O  O14  1  0.26222200  0.99247300  0.43159400  1
  O  O15  1  0.05691800  0.20493100  0.54144600  1
  O  O16  1  0.94308200  0.79506900  0.45855400  1
  O  O17  1  0.49151600  0.24637400  0.07230300  1
  O  O18  1  0.18031200  0.57022800  0.22475900  1
  O  O19  1  0.07726900  0.18868500  0.27779900  1
  O  O20  1  0.75968600  0.49642400  0.43402200  1
  O  O21  1  0.30350800  0.96335100  0.03751200  1
  O  O22  1  0.98367600  0.74988500  0.07911600  1
  O  O23  1  0.80222000  0.45112600  0.03920600  1
loop_
_geom_bond_atom_site_label_1
_geom_bond_atom_site_label_2
_geom_bond_distance
_geom_bond_site_symmetry_2
Li0 O4 1.951119 1_555
Li0 O0 1.988088 1_555
Li0 O13 2.034339 1_555
Li0 O17 2.378392 1_556
Li0 O20 2.718427 1_555
Li1 O7 1.974261 1_555
Li1 O1 1.988340 1_555
Li1 O2 2.040408 1_555
Li1 O5 2.487028 1_555
Li1 O4 2.704627 1_555
Li2 O15 1.981012 1_555
Li2 O6 1.987921 1_555
Li2 O5 1.998308 1_545
Li3 O9 1.942342 1_555
Li3 O11 1.967847 1_455
Li3 O14 2.046390 1_555
Li3 O16 2.458409 1_455
Li3 O7 2.708016 1_555
Li4 O8 1.974261 1_555
Li4 O17 1.988340 1_555
Li4 O23 2.040408 1_555
Li4 O10 2.487028 1_555
Li4 O12 2.704627 1_555
Li5 O12 1.951119 1_555
Li5 O21 1.988088 1_555
Li5 O18 2.034339 1_555
Li5 O1 2.378392 1_554
Li5 O9 2.718427 1_555
Li6 O20 1.942342 1_555
Li6 O19 1.967847 1_655
Li6 O3 2.046390 1_555
Li6 O15 2.458409 1_655
Li6 O8 2.708016 1_555
Li7 O16 1.981012 1_555
Li7 O22 1.987921 1_555
Li7 O10 1.998308 1_565
C0 O21 1.293100 1_556
C0 O5 1.297796 1_555
C0 O1 1.304178 1_555
C1 O20 1.297252 1_555
C1 O12 1.299611 1_555
C1 O7 1.299947 1_555
C2 O9 1.297252 1_555
C2 O4 1.299611 1_555
C2 O8 1.299947 1_555
C3 O23 1.299311 1_556
C3 O6 1.300104 1_655
C3 O13 1.302396 1_555
C4 O0 1.293100 1_554
C4 O10 1.297796 1_555
C4 O17 1.304178 1_555
C5 O14 1.295528 1_545
C5 O19 1.296202 1_555
C5 O15 1.305488 1_555
C6 O3 1.295528 1_565
C6 O11 1.296202 1_555
C6 O16 1.305488 1_555
C7 O2 1.299311 1_554
C7 O22 1.300104 1_455
C7 O18 1.302396 1_555
O0 V2 2.165280 1_545
O1 V2 2.205173 1_555
O2 V0 2.180663 1_556
O3 V1 2.169318 1_555
O4 V0 2.186533 1_556
O5 V1 2.162829 1_565
O6 V0 2.163033 1_556
O7 V1 2.169901 1_565
O8 V1 2.169901 1_555
O9 V3 2.166912 1_555
O10 V1 2.162829 1_555
O11 V2 2.148284 1_555
O12 V2 2.186533 1_554
O13 V3 2.190523 1_655
O14 V1 2.169318 1_565
O15 V3 2.186100 1_555
O16 V3 2.186100 1_655
O17 V0 2.205173 1_555
O18 V3 2.190523 1_555
O19 V0 2.148284 1_555
O20 V3 2.166912 1_655
O21 V0 2.165280 1_565
O22 V2 2.163033 1_554
O23 V2 2.180663 1_554
