# generated using pymatgen
data_Li2HfO3
_symmetry_space_group_name_H-M   'P 1'
_cell_length_a   5.17715537
_cell_length_b   5.17715537
_cell_length_c   3.14535666
_cell_angle_alpha   79.61468004
_cell_angle_beta   79.61468004
_cell_angle_gamma   47.05844570
_symmetry_Int_Tables_number   1
_chemical_formula_structural   Li2HfO3
_chemical_formula_sum   'Li2 Hf1 O3'
_cell_volume   60.51061860
_cell_formula_units_Z   1
loop_
 _symmetry_equiv_pos_site_id
 _symmetry_equiv_pos_as_xyz
  1  'x, y, z'
loop_
 _atom_site_type_symbol
 _atom_site_label
 _atom_site_symmetry_multiplicity
 _atom_site_fract_x
 _atom_site_fract_y
 _atom_site_fract_z
 _atom_site_occupancy
  Li  Li0  1  0.33577708  0.33577708  0.57862155  1
  Li  Li1  1  0.66422292  0.66422292  0.42137845  1
  Hf  Hf0  1  -0.00000000  -0.00000000  -0.00000000  1
  O  O0  1  0.14665391  0.14665391  0.41084163  1
  O  O1  1  0.50000000  0.50000000  -0.00000000  1
  O  O2  1  0.85334609  0.85334609  0.58915837  1
loop_
_geom_bond_atom_site_label_1
_geom_bond_atom_site_label_2
_geom_bond_distance
_geom_bond_site_symmetry_2
Li0 O0 1.968408 1_555
Li0 O2 2.074315 1_545
Li0 O2 2.074315 1_455
Li0 O1 2.151080 1_555
Li0 O1 2.236019 1_556
Li1 O2 1.968408 1_555
Li1 O0 2.074315 1_655
Li1 O0 2.074315 1_565
Li1 O1 2.151080 1_556
Li1 O1 2.236019 1_555
Hf0 O1 2.066807 1_545
Hf0 O1 2.066807 1_455
Hf0 O2 2.077429 1_444
Hf0 O0 2.077429 1_555
Hf0 O2 2.087547 1_445
Hf0 O0 2.087547 1_554
