# generated using pymatgen
data_Li4V3OF11
_symmetry_space_group_name_H-M   'P 1'
_cell_length_a   5.30296200
_cell_length_b   5.51074504
_cell_length_c   16.17460937
_cell_angle_alpha   99.28151910
_cell_angle_beta   89.88220333
_cell_angle_gamma   90.73062417
_symmetry_Int_Tables_number   1
_chemical_formula_structural   Li4V3OF11
_chemical_formula_sum   'Li8 V6 O2 F22'
_cell_volume   466.44871488
_cell_formula_units_Z   2
loop_
 _symmetry_equiv_pos_site_id
 _symmetry_equiv_pos_as_xyz
  1  'x, y, z'
loop_
 _atom_site_type_symbol
 _atom_site_label
 _atom_site_symmetry_multiplicity
 _atom_site_fract_x
 _atom_site_fract_y
 _atom_site_fract_z
 _atom_site_occupancy
  Li  Li0  1  0.31458400  0.13379100  0.82371200  1
  Li  Li1  1  0.01181300  0.09254300  0.22536300  1
  Li  Li2  1  0.54041100  0.07800300  0.11030300  1
  Li  Li3  1  0.68366600  0.52084400  0.50794700  1
  Li  Li4  1  0.83504700  0.71178200  0.83996800  1
  Li  Li5  1  0.48161200  0.55114800  0.23259000  1
  Li  Li6  1  0.95814900  0.64092000  0.11643600  1
  Li  Li7  1  0.20311500  0.97631700  0.48712400  1
  V  V0  1  0.52008900  0.17091100  0.33424000  1
  V  V1  1  0.99161100  0.01524300  0.00794900  1
  V  V2  1  0.00024900  0.33270000  0.66614900  1
  V  V3  1  0.49526900  0.50687100  0.99763900  1
  V  V4  1  0.98855500  0.64130300  0.33278300  1
  V  V5  1  0.50035800  0.83264100  0.66627400  1
  O  O0  1  0.88675600  0.98904400  0.11389500  1
  O  O1  1  0.80528800  0.34557500  0.30304600  1
  F  F0  1  0.80246500  0.02025300  0.64734900  1
  F  F1  1  0.66144200  0.18497600  0.98395400  1
  F  F2  1  0.29706100  0.14415300  0.70061900  1
  F  F3  1  0.58112800  0.20195600  0.45264200  1
  F  F4  1  0.90754000  0.39787800  0.78187000  1
  F  F5  1  0.37464000  0.15344000  0.21602900  1
  F  F6  1  0.09233400  0.27128000  0.55068000  1
  F  F7  1  0.40500300  0.44934800  0.88407500  1
  F  F8  1  0.70291100  0.52094800  0.63246000  1
  F  F9  1  0.81209300  0.68149900  0.96494400  1
  F  F10  1  0.17165400  0.34466900  0.03473500  1
  F  F11  1  0.32332000  0.48806600  0.35453600  1
  F  F12  1  0.19827500  0.64629300  0.68722100  1
  F  F13  1  0.61288500  0.51707600  0.11612100  1
  F  F14  1  0.57836500  0.87717100  0.78533900  1
  F  F15  1  0.91874100  0.71397700  0.45160700  1
  F  F16  1  0.42398000  0.78791000  0.54786600  1
  F  F17  1  0.13140400  0.64498800  0.21802000  1
  F  F18  1  0.08357500  0.96846900  0.88565100  1
  F  F19  1  0.69097800  0.83630200  0.29433100  1
  F  F20  1  0.32840300  0.82749000  0.03229500  1
  F  F21  1  0.19602100  0.97462200  0.35813700  1
loop_
_geom_bond_atom_site_label_1
_geom_bond_atom_site_label_2
_geom_bond_distance
_geom_bond_site_symmetry_2
Li1 O0 1.918150 1_445
Li1 O1 2.047117 1_455
Li2 O0 1.910390 1_545
Li5 O1 2.449960 1_555
Li6 O0 1.967076 1_555
O0 V1 1.827680 1_565
O1 V4 1.881595 1_555
O1 V0 1.893351 1_555
F0 V5 1.946032 1_545
F0 V2 1.985837 1_655
F0 F6 2.711994 1_655
F0 F8 2.767205 1_545
F0 F2 2.803862 1_655
F1 V3 1.970935 1_555
F1 V1 2.062217 1_556
F1 Li2 2.304236 1_556
F1 F13 2.594872 1_556
F1 F7 2.720373 1_555
F2 Li0 2.003365 1_555
F2 V2 2.024857 1_555
F2 V5 2.038357 1_545
F3 Li3 1.911691 1_555
F3 V0 1.922791 1_555
F3 Li7 2.455834 1_545
F4 Li4 1.874653 1_555
F4 V2 1.912587 1_655
F4 F8 2.834771 1_555
F5 Li2 1.908869 1_555
F5 Li1 1.958594 1_555
F5 V0 2.050558 1_555
F5 Li5 2.230806 1_555
F6 Li7 1.878002 1_545
F6 V2 1.907289 1_555
F7 V3 1.874985 1_555
F7 Li0 1.907909 1_555
F8 Li3 2.016650 1_555
F8 V2 2.021607 1_655
F8 V5 2.035890 1_555
F9 V3 2.036607 1_555
F9 Li4 2.058194 1_555
F9 V1 2.078000 1_566
F9 Li6 2.615905 1_556
F10 V1 2.024520 1_455
F10 V3 2.057596 1_554
F10 Li6 2.244671 1_455
F10 Li2 2.853068 1_555
F11 V0 2.027625 1_555
F11 V4 2.031017 1_455
F11 Li5 2.218754 1_555
F11 F5 2.677902 1_555
F11 F21 2.764782 1_555
F11 O1 2.770214 1_555
F11 F3 2.782798 1_555
F11 F15 2.835810 1_455
F11 F21 2.910193 1_545
F12 V5 1.950280 1_555
F12 V2 1.992626 1_555
F12 F4 2.684627 1_455
F12 F14 2.737971 1_555
F12 F2 2.760552 1_565
F12 F8 2.815703 1_455
F13 Li6 1.945538 1_555
F13 Li5 1.988104 1_555
F13 V3 2.008488 1_554
F13 Li2 2.431893 1_555
F14 Li4 1.939224 1_555
F14 V5 1.946382 1_555
F14 Li0 2.026215 1_565
F15 V4 1.934902 1_555
F15 Li3 1.947182 1_555
F15 Li7 2.091468 1_655
F16 V5 1.934211 1_555
F16 Li7 1.944182 1_555
F16 Li3 2.054462 1_555
F17 Li6 1.880997 1_455
F17 Li5 1.958962 1_555
F17 V4 2.006462 1_455
F17 Li1 2.538568 1_565
F17 F21 2.685669 1_555
F18 Li0 1.896128 1_565
F18 Li4 1.975640 1_455
F18 V1 2.012960 1_466
F19 Li5 2.037928 1_555
F19 V0 2.072271 1_565
F19 V4 2.072351 1_555
F19 Li1 2.563611 1_665
F20 V3 1.984275 1_554
F20 Li2 2.041124 1_565
F20 V1 2.144018 1_465
F20 Li6 2.674555 1_455
F21 Li7 2.085243 1_555
F21 V0 2.087466 1_565
F21 V4 2.111843 1_455
F21 Li1 2.542350 1_565
