# generated using pymatgen
data_Li5V3P8O29
_symmetry_space_group_name_H-M   'P 1'
_cell_length_a   9.76911200
_cell_length_b   9.78189936
_cell_length_c   14.00008006
_cell_angle_alpha   90.23886496
_cell_angle_beta   89.91047173
_cell_angle_gamma   119.77894744
_symmetry_Int_Tables_number   1
_chemical_formula_structural   Li5V3P8O29
_chemical_formula_sum   'Li10 V6 P16 O58'
_cell_volume   1161.17762106
_cell_formula_units_Z   2
loop_
 _symmetry_equiv_pos_site_id
 _symmetry_equiv_pos_as_xyz
  1  'x, y, z'
loop_
 _atom_site_type_symbol
 _atom_site_label
 _atom_site_symmetry_multiplicity
 _atom_site_fract_x
 _atom_site_fract_y
 _atom_site_fract_z
 _atom_site_occupancy
  Li  Li0  1  0.91341700  0.22664300  0.93967900  1
  Li  Li1  1  0.76374500  0.09258900  0.44194700  1
  Li  Li2  1  0.90021100  0.66262900  0.44215700  1
  Li  Li3  1  0.76769800  0.67222100  0.93680400  1
  Li  Li4  1  0.32552900  0.09660100  0.93933100  1
  Li  Li5  1  0.33691600  0.23248800  0.44249400  1
  Li  Li6  1  0.68052900  0.90953700  0.05876400  1
  Li  Li7  1  0.10151300  0.33554600  0.56127300  1
  Li  Li8  1  0.09290700  0.77719100  0.05852000  1
  Li  Li9  1  0.98306300  0.96073400  0.50866700  1
  V  V0  1  0.56256400  0.56883000  0.74630700  1
  V  V1  1  0.43214500  0.43227500  0.24799700  1
  V  V2  1  0.56613400  0.00108100  0.25443300  1
  V  V3  1  0.43108700  0.99907900  0.74589000  1
  V  V4  1  0.99970700  0.43243300  0.75220600  1
  V  V5  1  0.00013600  0.56773800  0.24920500  1
  P  P0  1  0.91089500  0.23045800  0.15788900  1
  P  P1  1  0.77511400  0.08785100  0.65640000  1
  P  P2  1  0.91067700  0.68495500  0.65849800  1
  P  P3  1  0.66482100  0.33469100  0.87041700  1
  P  P4  1  0.66602900  0.33619500  0.37217900  1
  P  P5  1  0.76663400  0.68120500  0.15534300  1
  P  P6  1  0.69002800  0.77317200  0.34150900  1
  P  P7  1  0.32005700  0.08789400  0.15746600  1
  P  P8  1  0.68164400  0.91307200  0.83971600  1
  P  P9  1  0.31404500  0.22885200  0.65811700  1
  P  P10  1  0.23075000  0.31574700  0.84358200  1
  P  P11  1  0.32894300  0.66322600  0.62770700  1
  P  P12  1  0.33680200  0.67000800  0.12989700  1
  P  P13  1  0.08819800  0.31522700  0.34086500  1
  P  P14  1  0.22302200  0.91527700  0.34142500  1
  P  P15  1  0.08896100  0.77023600  0.84054400  1
  O  O0  1  0.00362800  0.22620400  0.42997700  1
  O  O1  1  0.91996300  0.25739200  0.66445300  1
  O  O2  1  0.76024000  0.00054000  0.93004600  1
  O  O3  1  0.74381500  0.08234900  0.16354200  1
  O  O4  1  0.90092600  0.38157600  0.18061700  1
  O  O5  1  0.81308700  0.32771600  0.83072600  1
  O  O6  1  0.91255800  0.53087800  0.66870600  1
  O  O7  1  0.99713300  0.75496700  0.93001900  1
  O  O8  1  0.91648100  0.66569800  0.15679000  1
  O  O9  1  0.67849200  0.19074100  0.33380600  1
  O  O10  1  0.62107200  0.09054000  0.66813400  1
  O  O11  1  0.81053000  0.49038200  0.33388200  1
  O  O12  1  0.66936400  0.34301100  0.97704400  1
  O  O13  1  0.65436200  0.33385500  0.47871600  1
  O  O14  1  0.66900900  0.48646600  0.82723600  1
  O  O15  1  0.47951400  0.09875700  0.17774200  1
  O  O16  1  0.51323900  0.18615000  0.83119400  1
  O  O17  1  0.74055500  0.65787300  0.66979000  1
  O  O18  1  0.78629100  0.79680500  0.24216800  1
  O  O19  1  0.79475700  0.78354200  0.42247400  1
  O  O20  1  0.74982600  0.75187000  0.06412400  1
  O  O21  1  0.61862400  0.51992500  0.17702800  1
  O  O22  1  0.51062500  0.32494600  0.32771000  1
  O  O23  1  0.66078300  0.74525500  0.84010200  1
  O  O24  1  0.47238300  0.38377200  0.67165500  1
  O  O25  1  0.34177800  0.08748800  0.66351800  1
  O  O26  1  0.79324800  0.99849700  0.74907500  1
  O  O27  1  0.79251300  0.01425000  0.56638900  1
  O  O28  1  0.20893600  0.00601200  0.42346800  1
  O  O29  1  0.66045300  0.91497800  0.34311800  1
  O  O30  1  0.53466900  0.61571400  0.32968900  1
  O  O31  1  0.34044300  0.25550800  0.16555400  1
  O  O32  1  0.48142200  0.66702600  0.67642200  1
  O  O33  1  0.38172300  0.47541900  0.82343100  1
  O  O34  1  0.24144700  0.23026000  0.92712300  1
  O  O35  1  0.23025000  0.22750500  0.56720500  1
  O  O36  1  0.20328900  0.21163700  0.74634800  1
  O  O37  1  0.25763200  0.33721700  0.33891500  1
  O  O38  1  0.48749500  0.81660700  0.17122100  1
  O  O39  1  0.52294800  0.90587100  0.82154900  1
  O  O40  1  0.33743200  0.52271300  0.17989200  1
  O  O41  1  0.34106100  0.66316200  0.02405200  1
  O  O42  1  0.33937200  0.65595400  0.52222400  1
  O  O43  1  0.18616800  0.50798700  0.66715100  1
  O  O44  1  0.38064200  0.91550200  0.33227400  1
  O  O45  1  0.32450700  0.80642000  0.67168300  1
  O  O46  1  0.08421700  0.33788200  0.84400000  1
  O  O47  1  0.00250200  0.20867100  0.24790100  1
  O  O48  1  0.99084400  0.24110200  0.06632000  1
  O  O49  1  0.09338900  0.47263700  0.32856600  1
  O  O50  1  0.18653700  0.67300400  0.16765700  1
  O  O51  1  0.10018700  0.62029800  0.82196500  1
  O  O52  1  0.25428700  0.91765100  0.84166800  1
  O  O53  1  0.24651500  0.00461800  0.06566600  1
  O  O54  1  0.20148400  0.98924100  0.24268100  1
  O  O55  1  0.08255500  0.74338400  0.33926700  1
  O  O56  1  0.98048500  0.77398000  0.56792000  1
  O  O57  1  0.00262800  0.79491000  0.74949100  1
loop_
_geom_bond_atom_site_label_1
_geom_bond_atom_site_label_2
_geom_bond_distance
_geom_bond_site_symmetry_2
Li0 O48 1.905634 1_556
Li0 O2 1.964629 1_555
Li0 O46 1.991012 1_655
Li0 O5 2.290124 1_555
Li1 O27 1.981928 1_555
Li1 O0 2.046038 1_655
Li1 O29 2.047924 1_545
Li1 O9 2.172080 1_555
Li2 O19 1.936510 1_555
Li2 O56 2.010295 1_555
Li2 O11 2.102585 1_555
Li2 O55 2.115621 1_655
Li3 O7 1.971257 1_555
Li3 O20 1.984275 1_556
Li3 O23 2.046419 1_555
Li3 O14 2.196689 1_555
Li4 O34 1.866112 1_555
Li4 O53 1.962862 1_556
Li4 O52 2.047168 1_545
Li4 O16 2.197449 1_555
Li5 O28 1.945973 1_555
Li5 O35 2.020190 1_555
Li5 O37 2.134546 1_555
Li5 O22 2.181560 1_555
Li6 O20 1.969968 1_555
Li6 O2 1.991651 1_564
Li6 O3 2.082216 1_565
Li6 O38 2.271811 1_555
Li7 O35 2.006689 1_555
Li7 O43 2.079368 1_555
Li7 O0 2.100089 1_555
Li7 O1 2.114494 1_455
Li8 O53 1.973215 1_565
Li8 O7 1.989751 1_454
Li8 O8 2.047131 1_455
Li8 O50 2.270060 1_555
Li9 O56 1.998220 1_555
Li9 O19 2.160273 1_555
Li9 O27 2.313442 1_565
Li9 O28 2.348046 1_665
Li9 O35 2.653592 1_665
Li9 O0 2.739043 1_665
O0 P13 1.512789 1_555
O1 P1 1.559919 1_555
O1 V4 1.925736 1_555
O2 P8 1.504108 1_545
O3 P0 1.555966 1_555
O3 V2 1.973577 1_555
O4 P0 1.560400 1_555
O4 V5 1.847354 1_655
O5 P3 1.583258 1_555
O5 V4 1.931209 1_555
O6 P2 1.523688 1_555
O6 V4 1.961019 1_555
O7 P15 1.503717 1_655
O8 P5 1.545000 1_555
O8 V5 2.012848 1_655
O9 P4 1.579030 1_555
O9 V2 1.960970 1_555
O10 P1 1.526687 1_555
O10 V3 1.944881 1_545
O11 P4 1.563497 1_555
O11 V5 2.004319 1_655
O12 P3 1.494192 1_555
O13 P4 1.495101 1_555
O14 P3 1.586943 1_555
O14 V0 1.964092 1_555
O15 P7 1.534658 1_555
O15 V2 1.896374 1_555
O16 P3 1.569792 1_555
O16 V3 1.986183 1_545
O17 P2 1.555449 1_555
O17 V0 1.851287 1_555
O18 P5 1.602095 1_555
O18 P6 1.629333 1_555
O19 P6 1.497157 1_555
O20 P5 1.502147 1_555
O21 P5 1.551942 1_555
O21 V1 1.868416 1_555
O22 P4 1.594037 1_555
O22 V1 1.935836 1_555
O23 P8 1.550509 1_555
O23 V0 1.990855 1_555
O24 P9 1.547638 1_555
O24 V0 1.883700 1_555
O25 P9 1.537643 1_555
O25 V3 1.897348 1_545
O26 P8 1.611467 1_555
O26 P1 1.625646 1_565
O27 P1 1.499519 1_555
O28 P14 1.496103 1_545
O29 P6 1.551106 1_555
O29 V2 1.970562 1_565
O30 P6 1.542673 1_555
O30 V1 1.931910 1_555
O31 P7 1.553993 1_555
O31 V1 1.890110 1_555
O32 P11 1.622760 1_555
O32 V0 1.809648 1_555
O33 P10 1.551948 1_555
O33 V0 1.876336 1_555
O34 P10 1.474262 1_555
O35 P9 1.510842 1_555
O36 P9 1.594193 1_555
O36 P10 1.637191 1_555
O37 P13 1.559812 1_555
O37 V1 1.954408 1_555
O38 P12 1.567513 1_555
O38 V2 1.952396 1_565
O39 P8 1.538099 1_555
O39 V3 1.892709 1_555
O40 P12 1.607219 1_555
O40 V1 1.835945 1_555
O41 P12 1.484523 1_555
O42 P11 1.483962 1_555
O43 P11 1.567495 1_555
O43 V4 1.986343 1_455
O44 P14 1.543841 1_555
O44 V2 1.914866 1_565
O45 P11 1.547880 1_555
O45 V3 1.937264 1_555
O46 P10 1.550465 1_555
O46 V4 1.990038 1_455
O47 P13 1.614475 1_555
O47 P0 1.621589 1_455
O48 P0 1.476995 1_555
O49 P13 1.525690 1_555
O49 V5 1.945086 1_555
O50 P12 1.573339 1_555
O50 V5 1.954596 1_555
O51 P15 1.545099 1_555
O51 V4 1.868325 1_455
O52 P15 1.540985 1_555
O52 V3 2.012645 1_555
O53 P7 1.498104 1_555
O54 P7 1.609737 1_565
O54 P14 1.624590 1_555
O55 P14 1.555312 1_555
O55 V5 1.949644 1_555
O56 P2 1.499367 1_555
O57 P15 1.613283 1_555
O57 P2 1.618349 1_455
