# generated using pymatgen
data_LiMn2F5
_symmetry_space_group_name_H-M   'P 1'
_cell_length_a   10.93001200
_cell_length_b   5.52059100
_cell_length_c   14.29835155
_cell_angle_alpha   69.45189077
_cell_angle_beta   90.00000000
_cell_angle_gamma   90.00000000
_symmetry_Int_Tables_number   1
_chemical_formula_structural   LiMn2F5
_chemical_formula_sum   'Li8 Mn16 F40'
_cell_volume   807.87336939
_cell_formula_units_Z   8
loop_
 _symmetry_equiv_pos_site_id
 _symmetry_equiv_pos_as_xyz
  1  'x, y, z'
loop_
 _atom_site_type_symbol
 _atom_site_label
 _atom_site_symmetry_multiplicity
 _atom_site_fract_x
 _atom_site_fract_y
 _atom_site_fract_z
 _atom_site_occupancy
  Li  Li0  1  0.41567600  0.27870900  0.53004500  1
  Li  Li1  1  0.93410600  0.04078900  0.73135600  1
  Li  Li2  1  0.43410600  0.95921100  0.76864400  1
  Li  Li3  1  0.91567600  0.72129100  0.96995500  1
  Li  Li4  1  0.08432400  0.27870900  0.03004500  1
  Li  Li5  1  0.56589400  0.04078900  0.23135600  1
  Li  Li6  1  0.06589400  0.95921100  0.26864400  1
  Li  Li7  1  0.58432400  0.72129100  0.46995500  1
  Mn  Mn0  1  0.02258800  0.57218900  0.17449900  1
  Mn  Mn1  1  0.71936200  0.16540500  0.54488300  1
  Mn  Mn2  1  0.03744600  0.36074400  0.41242800  1
  Mn  Mn3  1  0.19766200  0.08974500  0.66252300  1
  Mn  Mn4  1  0.53744600  0.63925600  0.08757200  1
  Mn  Mn5  1  0.21936200  0.83459500  0.95511700  1
  Mn  Mn6  1  0.69766200  0.91025500  0.83747700  1
  Mn  Mn7  1  0.52258800  0.42781100  0.32550100  1
  Mn  Mn8  1  0.47741200  0.57218900  0.67449900  1
  Mn  Mn9  1  0.30233800  0.08974500  0.16252300  1
  Mn  Mn10  1  0.78063800  0.16540500  0.04488300  1
  Mn  Mn11  1  0.46255400  0.36074400  0.91242800  1
  Mn  Mn12  1  0.80233800  0.91025500  0.33747700  1
  Mn  Mn13  1  0.96255400  0.63925600  0.58757200  1
  Mn  Mn14  1  0.28063800  0.83459500  0.45511700  1
  Mn  Mn15  1  0.97741200  0.42781100  0.82550100  1
  F  F0  1  0.66160000  0.90490600  0.98757400  1
  F  F1  1  0.68581000  0.51840300  0.41119300  1
  F  F2  1  0.90367900  0.85051400  0.07540100  1
  F  F3  1  0.87364700  0.04374300  0.86201200  1
  F  F4  1  0.54519700  0.18603900  0.80541700  1
  F  F5  1  0.94095500  0.69586800  0.30025200  1
  F  F6  1  0.15068800  0.47824000  0.28993600  1
  F  F7  1  0.56282300  0.36124600  0.58758300  1
  F  F8  1  0.90209700  0.34664200  0.52359300  1
  F  F9  1  0.27198200  0.97363800  0.80619400  1
  F  F10  1  0.65068800  0.52176000  0.21006400  1
  F  F11  1  0.44095500  0.30413200  0.19974800  1
  F  F12  1  0.77198200  0.02636200  0.69380600  1
  F  F13  1  0.40367900  0.14948600  0.42459900  1
  F  F14  1  0.18581000  0.48159700  0.08880700  1
  F  F15  1  0.40209700  0.65335800  0.97640700  1
  F  F16  1  0.16160000  0.09509400  0.51242600  1
  F  F17  1  0.06282300  0.63875400  0.91241700  1
  F  F18  1  0.62635300  0.04374300  0.36201200  1
  F  F19  1  0.04519700  0.81396100  0.69458300  1
  F  F20  1  0.95480300  0.18603900  0.30541700  1
  F  F21  1  0.37364700  0.95625700  0.63798800  1
  F  F22  1  0.93717700  0.36124600  0.08758300  1
  F  F23  1  0.83840000  0.90490600  0.48757400  1
  F  F24  1  0.59790300  0.34664200  0.02359300  1
  F  F25  1  0.81419000  0.51840300  0.91119300  1
  F  F26  1  0.59632100  0.85051400  0.57540100  1
  F  F27  1  0.22801800  0.97363800  0.30619400  1
  F  F28  1  0.55904500  0.69586800  0.80025200  1
  F  F29  1  0.34931200  0.47824000  0.78993600  1
  F  F30  1  0.72801800  0.02636200  0.19380600  1
  F  F31  1  0.09790300  0.65335800  0.47640700  1
  F  F32  1  0.43717700  0.63875400  0.41241700  1
  F  F33  1  0.84931200  0.52176000  0.71006400  1
  F  F34  1  0.05904500  0.30413200  0.69974800  1
  F  F35  1  0.45480300  0.81396100  0.19458300  1
  F  F36  1  0.12635300  0.95625700  0.13798800  1
  F  F37  1  0.09632100  0.14948600  0.92459900  1
  F  F38  1  0.31419000  0.48159700  0.58880700  1
  F  F39  1  0.33840000  0.09509400  0.01242600  1
loop_
_geom_bond_atom_site_label_1
_geom_bond_atom_site_label_2
_geom_bond_distance
_geom_bond_site_symmetry_2
F0 Mn4 2.136488 1_556
F0 Mn6 2.172017 1_555
F0 Mn10 2.293398 1_566
F0 F24 2.752921 1_566
F0 F4 2.823736 1_565
F1 Li7 1.962528 1_555
F1 Mn1 2.229608 1_555
F1 Mn7 2.316086 1_555
F1 Mn12 2.410852 1_555
F1 F8 2.828572 1_555
F1 F10 2.894926 1_555
F2 Li3 1.885293 1_554
F2 Mn10 2.118604 1_565
F2 Mn0 2.128246 1_655
F2 F36 2.726143 1_655
F3 Li3 1.957881 1_545
F3 Li1 1.987052 1_555
F3 Mn6 2.132496 1_545
F3 Mn15 2.297262 1_555
F3 F37 2.726143 1_655
F3 F33 2.780323 1_555
F4 Li2 1.944496 1_545
F4 Mn6 2.194361 1_545
F4 Mn11 2.263455 1_555
F4 Mn8 2.407522 1_555
F5 Li6 1.929094 1_655
F5 Mn12 2.102801 1_555
F5 Mn2 2.241563 1_655
F5 Mn0 2.314549 1_655
F6 Mn2 2.054934 1_555
F6 Mn0 2.086330 1_555
F6 Li6 2.726628 1_555
F7 Li0 1.932431 1_555
F7 Li7 2.118492 1_555
F7 Mn8 2.188152 1_555
F7 Mn1 2.220915 1_555
F8 Mn2 2.152709 1_655
F8 Mn1 2.206608 1_555
F8 Mn13 2.218196 1_555
F8 Li1 2.877002 1_555
F9 Li2 1.861363 1_555
F9 Mn5 2.075270 1_555
F9 Mn3 2.089584 1_565
F10 Mn4 2.054934 1_555
F10 Mn7 2.086330 1_555
F10 F35 2.642819 1_555
F10 Li5 2.726628 1_555
F10 F18 2.780323 1_555
F10 F30 2.841474 1_565
F11 Li5 1.929094 1_555
F11 Mn9 2.102801 1_555
F11 Mn4 2.241563 1_555
F11 Mn7 2.314549 1_555
F12 Li1 1.861363 1_555
F12 Mn1 2.075270 1_555
F12 Mn6 2.089584 1_545
F12 F33 2.841474 1_545
F13 Li0 1.885293 1_555
F13 Mn14 2.118604 1_545
F13 Mn7 2.128246 1_555
F13 F18 2.726143 1_555
F14 Li4 1.962528 1_555
F14 Mn5 2.229608 1_554
F14 Mn0 2.316086 1_555
F14 Mn9 2.410852 1_555
F14 F15 2.828572 1_554
F14 F6 2.894926 1_555
F15 Mn4 2.152709 1_556
F15 Mn5 2.206608 1_555
F15 Mn11 2.218196 1_555
F15 F24 2.664703 1_556
F15 F39 2.752921 1_566
F15 Li2 2.877002 1_555
F16 Mn2 2.136488 1_555
F16 Mn3 2.172017 1_555
F16 Mn14 2.293398 1_545
F16 F31 2.752921 1_545
F16 F19 2.823736 1_545
F17 Li3 1.932431 1_455
F17 Li4 2.118492 1_556
F17 Mn15 2.188152 1_455
F17 Mn5 2.220915 1_555
F18 Li7 1.957881 1_545
F18 Li5 1.987052 1_555
F18 Mn12 2.132496 1_545
F18 Mn7 2.297262 1_555
F19 Li1 1.944496 1_465
F19 Mn3 2.194361 1_565
F19 Mn13 2.263455 1_455
F19 Mn15 2.407522 1_455
F19 F33 2.642819 1_455
F20 Li6 1.944496 1_645
F20 Mn12 2.194361 1_545
F20 Mn2 2.263455 1_655
F20 Mn0 2.407522 1_655
F20 F6 2.642819 1_655
F20 F23 2.823736 1_545
F21 Li0 1.957881 1_565
F21 Li2 1.987052 1_555
F21 Mn3 2.132496 1_565
F21 Mn8 2.297262 1_555
F21 F26 2.726143 1_555
F21 F29 2.780323 1_555
F22 Li4 1.932431 1_655
F22 Li3 2.118492 1_554
F22 Mn0 2.188152 1_655
F22 Mn10 2.220915 1_555
F23 Mn13 2.136488 1_555
F23 Mn12 2.172017 1_555
F23 Mn1 2.293398 1_565
F23 F8 2.752921 1_565
F24 Mn11 2.152709 1_554
F24 Mn10 2.206608 1_555
F24 Mn4 2.218196 1_555
F24 F25 2.828572 1_554
F24 Li5 2.877002 1_555
F25 Li3 1.962528 1_555
F25 Mn10 2.229608 1_556
F25 Mn15 2.316086 1_555
F25 Mn6 2.410852 1_555
F25 F33 2.894926 1_555
F26 Li7 1.885293 1_555
F26 Mn1 2.118604 1_565
F26 Mn8 2.128246 1_555
F27 Li6 1.861363 1_555
F27 Mn14 2.075270 1_555
F27 Mn9 2.089584 1_565
F27 F6 2.841474 1_565
F28 Li2 1.929094 1_555
F28 Mn6 2.102801 1_555
F28 Mn11 2.241563 1_555
F28 Mn8 2.314549 1_555
F29 Mn11 2.054934 1_555
F29 Mn8 2.086330 1_555
F29 F4 2.642819 1_555
F29 Li2 2.726628 1_555
F29 F9 2.841474 1_545
F29 F38 2.894926 1_555
F30 Li5 1.861363 1_555
F30 Mn10 2.075270 1_555
F30 Mn12 2.089584 1_545
F31 Mn13 2.152709 1_455
F31 Mn14 2.206608 1_555
F31 Mn2 2.218196 1_555
F31 F8 2.664703 1_455
F31 F38 2.828572 1_555
F31 Li6 2.877002 1_555
F32 Li7 1.932431 1_555
F32 Li0 2.118492 1_555
F32 Mn7 2.188152 1_555
F32 Mn14 2.220915 1_555
F33 Mn13 2.054934 1_555
F33 Mn15 2.086330 1_555
F33 Li1 2.726628 1_555
F34 Li1 1.929094 1_455
F34 Mn3 2.102801 1_555
F34 Mn13 2.241563 1_455
F34 Mn15 2.314549 1_455
F35 Li5 1.944496 1_565
F35 Mn9 2.194361 1_565
F35 Mn4 2.263455 1_555
F35 Mn7 2.407522 1_555
F35 F39 2.823736 1_565
F36 Li4 1.957881 1_565
F36 Li6 1.987052 1_555
F36 Mn9 2.132496 1_565
F36 Mn0 2.297262 1_555
F36 F6 2.780323 1_555
F37 Li4 1.885293 1_556
F37 Mn5 2.118604 1_545
F37 Mn15 2.128246 1_455
F38 Li0 1.962528 1_555
F38 Mn14 2.229608 1_555
F38 Mn8 2.316086 1_555
F38 Mn3 2.410852 1_555
F39 Mn11 2.136488 1_554
F39 Mn9 2.172017 1_555
F39 Mn5 2.293398 1_544
