# generated using pymatgen
data_Ca(CdAs)2
_symmetry_space_group_name_H-M   'P 1'
_cell_length_a   4.41387899
_cell_length_b   4.41387829
_cell_length_c   7.20605862
_cell_angle_alpha   90.00000000
_cell_angle_beta   90.00000000
_cell_angle_gamma   120.00000517
_symmetry_Int_Tables_number   1
_chemical_formula_structural   Ca(CdAs)2
_chemical_formula_sum   'Ca1 Cd2 As2'
_cell_volume   121.58196997
_cell_formula_units_Z   1
loop_
 _symmetry_equiv_pos_site_id
 _symmetry_equiv_pos_as_xyz
  1  'x, y, z'
loop_
 _atom_site_type_symbol
 _atom_site_label
 _atom_site_symmetry_multiplicity
 _atom_site_fract_x
 _atom_site_fract_y
 _atom_site_fract_z
 _atom_site_occupancy
  Ca  Ca0  1  -0.00000000  -0.00000000  -0.00000000  1
  Cd  Cd0  1  0.33333300  0.66666700  0.63325409  1
  Cd  Cd1  1  0.66666700  0.33333300  0.36674591  1
  As  As0  1  0.33333300  0.66666700  0.23765983  1
  As  As1  1  0.66666700  0.33333300  0.76234017  1
loop_
_geom_bond_atom_site_label_1
_geom_bond_atom_site_label_2
_geom_bond_distance
_geom_bond_site_symmetry_2
Cd0 Cd1 3.190974 1_565
Cd0 Cd1 3.190974 1_455
Cd0 Cd1 3.190980 1_555
As0 Cd1 2.712816 1_565
As0 Cd1 2.712816 1_455
As0 Cd1 2.712823 1_555
As0 Cd0 2.850675 1_555
As0 Ca0 3.070352 1_565
As0 Ca0 3.070355 1_555
As0 Ca0 3.070355 1_665
As1 Cd0 2.712816 1_545
As1 Cd0 2.712816 1_655
As1 Cd0 2.712823 1_555
As1 Cd1 2.850675 1_555
As1 Ca0 3.070352 1_656
As1 Ca0 3.070355 1_666
As1 Ca0 3.070355 1_556
