# generated using pymatgen
data_Lu2P4O13
_symmetry_space_group_name_H-M   'P 1'
_cell_length_a   9.65963500
_cell_length_b   8.59448900
_cell_length_c   13.94710723
_cell_angle_alpha   75.16848839
_cell_angle_beta   90.00000000
_cell_angle_gamma   90.00000000
_symmetry_Int_Tables_number   1
_chemical_formula_structural   Lu2P4O13
_chemical_formula_sum   'Lu8 P16 O52'
_cell_volume   1119.30614026
_cell_formula_units_Z   4
loop_
 _symmetry_equiv_pos_site_id
 _symmetry_equiv_pos_as_xyz
  1  'x, y, z'
loop_
 _atom_site_type_symbol
 _atom_site_label
 _atom_site_symmetry_multiplicity
 _atom_site_fract_x
 _atom_site_fract_y
 _atom_site_fract_z
 _atom_site_occupancy
  Lu  Lu0  1  0.99928100  0.71493800  0.98815300  1
  Lu  Lu1  1  0.99676800  0.78838500  0.51200900  1
  Lu  Lu2  1  0.50071900  0.71493800  0.48815300  1
  Lu  Lu3  1  0.50323200  0.78838500  0.01200900  1
  Lu  Lu4  1  0.49676800  0.21161500  0.98799100  1
  Lu  Lu5  1  0.49928100  0.28506200  0.51184700  1
  Lu  Lu6  1  0.00323200  0.21161500  0.48799100  1
  Lu  Lu7  1  0.00071900  0.28506200  0.01184700  1
  P  P0  1  0.71840300  0.96895100  0.59495000  1
  P  P1  1  0.75483900  0.88371200  0.81507100  1
  P  P2  1  0.26934500  0.76225600  0.68267800  1
  P  P3  1  0.78159700  0.96895100  0.09495000  1
  P  P4  1  0.74516100  0.88371200  0.31507100  1
  P  P5  1  0.28179600  0.53991400  0.90151700  1
  P  P6  1  0.23065500  0.76225600  0.18267800  1
  P  P7  1  0.78179600  0.46008600  0.59848300  1
  P  P8  1  0.21820400  0.53991400  0.40151700  1
  P  P9  1  0.76934500  0.23774400  0.81732200  1
  P  P10  1  0.71820400  0.46008600  0.09848300  1
  P  P11  1  0.25483900  0.11628800  0.68492900  1
  P  P12  1  0.21840300  0.03104900  0.90505000  1
  P  P13  1  0.73065500  0.23774400  0.31732200  1
  P  P14  1  0.24516100  0.11628800  0.18492900  1
  P  P15  1  0.28159700  0.03104900  0.40505000  1
  O  O0  1  0.31057100  0.93230600  0.70525100  1
  O  O1  1  0.15071000  0.87328500  0.90200300  1
  O  O2  1  0.87095600  0.98923200  0.55823000  1
  O  O3  1  0.62399100  0.85926500  0.87504300  1
  O  O4  1  0.72230800  0.85985700  0.70800600  1
  O  O5  1  0.63632100  0.87297400  0.53753600  1
  O  O6  1  0.87289600  0.77142600  0.85533100  1
  O  O7  1  0.18942900  0.93230600  0.20525100  1
  O  O8  1  0.34929000  0.87328500  0.40200300  1
  O  O9  1  0.62904400  0.98923200  0.05823000  1
  O  O10  1  0.36832900  0.63997500  0.95406100  1
  O  O11  1  0.12521700  0.77145700  0.64153600  1
  O  O12  1  0.87600900  0.85926500  0.37504300  1
  O  O13  1  0.77769200  0.85985700  0.20800600  1
  O  O14  1  0.38193100  0.71617500  0.62053700  1
  O  O15  1  0.27128700  0.63653500  0.78688900  1
  O  O16  1  0.86367900  0.87297400  0.03753600  1
  O  O17  1  0.84870800  0.62042000  0.59636900  1
  O  O18  1  0.12926200  0.51735400  0.94129000  1
  O  O19  1  0.62710400  0.77142600  0.35533100  1
  O  O20  1  0.13167100  0.63997500  0.45406100  1
  O  O21  1  0.37478300  0.77145700  0.14153600  1
  O  O22  1  0.11806900  0.71617500  0.12053700  1
  O  O23  1  0.22871300  0.63653500  0.28688900  1
  O  O24  1  0.62926200  0.48264600  0.55871000  1
  O  O25  1  0.34870800  0.37958000  0.90363100  1
  O  O26  1  0.65129200  0.62042000  0.09636900  1
  O  O27  1  0.37073800  0.51735400  0.44129000  1
  O  O28  1  0.77128700  0.36346500  0.71311100  1
  O  O29  1  0.88193100  0.28382500  0.87946300  1
  O  O30  1  0.62521700  0.22854300  0.85846400  1
  O  O31  1  0.86832900  0.36002500  0.54593900  1
  O  O32  1  0.37289600  0.22857400  0.64466900  1
  O  O33  1  0.87073800  0.48264600  0.05871000  1
  O  O34  1  0.15129200  0.37958000  0.40363100  1
  O  O35  1  0.13632100  0.12702600  0.96246400  1
  O  O36  1  0.72871300  0.36346500  0.21311100  1
  O  O37  1  0.61806900  0.28382500  0.37946300  1
  O  O38  1  0.22230800  0.14014300  0.79199400  1
  O  O39  1  0.12399100  0.14073500  0.62495700  1
  O  O40  1  0.87478300  0.22854300  0.35846400  1
  O  O41  1  0.63167100  0.36002500  0.04593900  1
  O  O42  1  0.37095600  0.01076800  0.94177000  1
  O  O43  1  0.65071000  0.12671500  0.59799700  1
  O  O44  1  0.81057100  0.06769400  0.79474900  1
  O  O45  1  0.12710400  0.22857400  0.14466900  1
  O  O46  1  0.36367900  0.12702600  0.46246400  1
  O  O47  1  0.27769200  0.14014300  0.29199400  1
  O  O48  1  0.37600900  0.14073500  0.12495700  1
  O  O49  1  0.12904400  0.01076800  0.44177000  1
  O  O50  1  0.84929000  0.12671500  0.09799700  1
  O  O51  1  0.68942900  0.06769400  0.29474900  1
loop_
_geom_bond_atom_site_label_1
_geom_bond_atom_site_label_2
_geom_bond_distance
_geom_bond_site_symmetry_2
Lu0 O16 2.124586 1_556
Lu0 O1 2.144359 1_655
Lu0 O6 2.167347 1_555
Lu0 O22 2.176212 1_656
Lu0 O18 2.335708 1_655
Lu0 O33 2.343094 1_556
Lu1 O20 2.122731 1_655
Lu1 O17 2.155037 1_555
Lu1 O11 2.165563 1_655
Lu1 O12 2.187509 1_555
Lu1 O49 2.299279 1_665
Lu1 O2 2.332789 1_555
Lu2 O5 2.124586 1_555
Lu2 O8 2.144359 1_555
Lu2 O19 2.167347 1_555
Lu2 O14 2.176212 1_555
Lu2 O27 2.335708 1_555
Lu2 O24 2.343094 1_555
Lu3 O10 2.122731 1_554
Lu3 O26 2.155037 1_555
Lu3 O21 2.165563 1_555
Lu3 O3 2.187509 1_554
Lu3 O42 2.299279 1_564
Lu3 O9 2.332789 1_555
Lu4 O41 2.122731 1_556
Lu4 O25 2.155037 1_555
Lu4 O30 2.165563 1_555
Lu4 O48 2.187509 1_556
Lu4 O9 2.299279 1_546
Lu4 O42 2.332789 1_555
Lu5 O46 2.124586 1_555
Lu5 O43 2.144359 1_555
Lu5 O32 2.167347 1_555
Lu5 O37 2.176212 1_555
Lu5 O24 2.335708 1_555
Lu5 O27 2.343094 1_555
Lu6 O31 2.122731 1_455
Lu6 O34 2.155037 1_555
Lu6 O40 2.165563 1_455
Lu6 O39 2.187509 1_555
Lu6 O2 2.299279 1_445
Lu6 O49 2.332789 1_555
Lu7 O35 2.124586 1_554
Lu7 O50 2.144359 1_455
Lu7 O45 2.167347 1_555
Lu7 O29 2.176212 1_454
Lu7 O33 2.335708 1_455
Lu7 O18 2.343094 1_554
O0 P2 1.621488 1_555
O0 P11 1.625117 1_565
O1 P12 1.515699 1_565
O2 P0 1.555147 1_555
O3 P1 1.500451 1_555
O4 P1 1.589748 1_555
O4 P0 1.615536 1_555
O5 P0 1.512763 1_555
O6 P1 1.506540 1_555
O7 P6 1.621488 1_555
O7 P14 1.625117 1_565
O8 P15 1.515699 1_565
O9 P3 1.555147 1_555
O10 P5 1.515895 1_555
O11 P2 1.500190 1_555
O12 P4 1.500451 1_555
O13 P4 1.589748 1_555
O13 P3 1.615536 1_555
O14 P2 1.505478 1_555
O15 P2 1.573639 1_555
O15 P5 1.605038 1_555
O16 P3 1.512763 1_555
O17 P7 1.515482 1_555
O18 P5 1.568827 1_555
O19 P4 1.506540 1_555
O20 P8 1.515895 1_555
O21 P6 1.500190 1_555
O22 P6 1.505478 1_555
O23 P6 1.573639 1_555
O23 P8 1.605038 1_555
O24 P7 1.568827 1_555
O25 P5 1.515482 1_555
O26 P10 1.515482 1_555
O27 P8 1.568827 1_555
O28 P9 1.573639 1_555
O28 P7 1.605038 1_555
O29 P9 1.505478 1_555
O30 P9 1.500190 1_555
O31 P7 1.515895 1_555
O32 P11 1.506540 1_555
O33 P10 1.568827 1_555
O34 P8 1.515482 1_555
O35 P12 1.512763 1_555
O36 P13 1.573639 1_555
O36 P10 1.605038 1_555
O37 P13 1.505478 1_555
O38 P11 1.589748 1_555
O38 P12 1.615536 1_555
O39 P11 1.500451 1_555
O40 P13 1.500190 1_555
O41 P10 1.515895 1_555
O42 P12 1.555147 1_555
O43 P0 1.515699 1_545
O44 P9 1.621488 1_555
O44 P1 1.625117 1_545
O45 P14 1.506540 1_555
O46 P15 1.512763 1_555
O47 P14 1.589748 1_555
O47 P15 1.615536 1_555
O48 P14 1.500451 1_555
O49 P15 1.555147 1_555
O50 P3 1.515699 1_545
O51 P13 1.621488 1_555
O51 P4 1.625117 1_545
