# generated using pymatgen
data_CoAgO3
_symmetry_space_group_name_H-M   'P 1'
_cell_length_a   6.96809617
_cell_length_b   6.96809617
_cell_length_c   4.99881382
_cell_angle_alpha   86.70020317
_cell_angle_beta   86.70020317
_cell_angle_gamma   75.15577074
_symmetry_Int_Tables_number   1
_chemical_formula_structural   CoAgO3
_chemical_formula_sum   'Co4 Ag4 O12'
_cell_volume   233.99424736
_cell_formula_units_Z   4
loop_
 _symmetry_equiv_pos_site_id
 _symmetry_equiv_pos_as_xyz
  1  'x, y, z'
loop_
 _atom_site_type_symbol
 _atom_site_label
 _atom_site_symmetry_multiplicity
 _atom_site_fract_x
 _atom_site_fract_y
 _atom_site_fract_z
 _atom_site_occupancy
  Co  Co0  1  0.91506400  0.08493600  0.75000000  1
  Co  Co1  1  0.72767100  0.27232900  0.25000000  1
  Co  Co2  1  0.27232900  0.72767100  0.75000000  1
  Co  Co3  1  0.08493600  0.91506400  0.25000000  1
  Ag  Ag0  1  0.84479700  0.61302300  0.73939200  1
  Ag  Ag1  1  0.61302300  0.84479700  0.23939200  1
  Ag  Ag2  1  0.38697700  0.15520300  0.76060800  1
  Ag  Ag3  1  0.15520300  0.38697700  0.26060800  1
  O  O0  1  0.99725000  0.82851100  0.59122100  1
  O  O1  1  0.87515800  0.31940700  0.91671100  1
  O  O2  1  0.82851100  0.99725000  0.09122100  1
  O  O3  1  0.59778200  0.50213100  0.46857100  1
  O  O4  1  0.68059300  0.12484200  0.58328900  1
  O  O5  1  0.50213100  0.59778200  0.96857100  1
  O  O6  1  0.49786900  0.40221800  0.03142900  1
  O  O7  1  0.31940700  0.87515800  0.41671100  1
  O  O8  1  0.40221800  0.49786900  0.53142900  1
  O  O9  1  0.17148900  0.00275000  0.90877900  1
  O  O10  1  0.12484200  0.68059300  0.08328900  1
  O  O11  1  0.00275000  0.17148900  0.40877900  1
loop_
_geom_bond_atom_site_label_1
_geom_bond_atom_site_label_2
_geom_bond_distance
_geom_bond_site_symmetry_2
Co0 O1 1.827142 1_555
Co0 O4 1.827142 1_555
Co0 O2 1.896547 1_546
Co0 O11 1.896547 1_655
Co0 O9 1.933184 1_655
Co0 O0 1.933184 1_545
Co1 O4 1.962708 1_555
Co1 O1 1.962708 1_554
Co1 O3 1.980408 1_555
Co1 O6 1.980408 1_555
Co1 O2 2.053916 1_545
Co1 O11 2.053916 1_655
Co2 O10 1.962708 1_556
Co2 O7 1.962708 1_555
Co2 O5 1.980408 1_555
Co2 O8 1.980408 1_555
Co2 O0 2.053916 1_455
Co2 O9 2.053916 1_565
Co3 O7 1.827142 1_555
Co3 O10 1.827142 1_555
Co3 O0 1.896547 1_455
Co3 O9 1.896547 1_564
Co3 O11 1.933184 1_565
Co3 O2 1.933184 1_455
Ag0 O0 2.128478 1_555
Ag0 O1 2.146477 1_555
Ag0 O3 2.542158 1_555
Ag0 O5 2.612662 1_555
Ag0 O10 2.816900 1_656
Ag1 O2 2.128478 1_555
Ag1 O7 2.146477 1_555
Ag1 O5 2.542158 1_554
Ag1 O3 2.612662 1_555
Ag1 O4 2.816900 1_565
Ag2 O9 2.128478 1_555
Ag2 O4 2.146477 1_555
Ag2 O6 2.542158 1_556
Ag2 O8 2.612662 1_555
Ag2 O7 2.816900 1_545
Ag3 O11 2.128478 1_555
Ag3 O10 2.146477 1_555
Ag3 O8 2.542158 1_555
Ag3 O6 2.612662 1_555
Ag3 O1 2.816900 1_454
O0 O4 2.607686 1_565
O1 O9 2.607686 1_655
O3 O8 1.388149 1_555
O5 O6 1.388149 1_556
O10 O2 2.607686 1_455
O11 O7 2.607686 1_545
