# generated using pymatgen
data_Li3NbHO2F7
_symmetry_space_group_name_H-M   'P 1'
_cell_length_a   6.56382000
_cell_length_b   13.00190000
_cell_length_c   14.25184500
_cell_angle_alpha   90.00000000
_cell_angle_beta   90.00000000
_cell_angle_gamma   90.00000000
_symmetry_Int_Tables_number   1
_chemical_formula_structural   Li3NbHO2F7
_chemical_formula_sum   'Li24 Nb8 H8 O16 F56'
_cell_volume   1216.28282666
_cell_formula_units_Z   8
loop_
 _symmetry_equiv_pos_site_id
 _symmetry_equiv_pos_as_xyz
  1  'x, y, z'
loop_
 _atom_site_type_symbol
 _atom_site_label
 _atom_site_symmetry_multiplicity
 _atom_site_fract_x
 _atom_site_fract_y
 _atom_site_fract_z
 _atom_site_occupancy
  Li  Li0  1  0.20277900  0.34536400  0.26691500  1
  Li  Li1  1  0.20277900  0.84536400  0.73308500  1
  Li  Li2  1  0.23131500  0.36654300  0.99588100  1
  Li  Li3  1  0.23131500  0.86654300  0.00411900  1
  Li  Li4  1  0.23084400  0.56269800  0.11917600  1
  Li  Li5  1  0.23084400  0.06269800  0.88082400  1
  Li  Li6  1  0.26915600  0.06269800  0.38082400  1
  Li  Li7  1  0.26915600  0.56269800  0.61917600  1
  Li  Li8  1  0.26868500  0.36654300  0.49588100  1
  Li  Li9  1  0.26868500  0.86654300  0.50411900  1
  Li  Li10  1  0.29722100  0.84536400  0.23308500  1
  Li  Li11  1  0.29722100  0.34536400  0.76691500  1
  Li  Li12  1  0.70277900  0.65463600  0.23308500  1
  Li  Li13  1  0.70277900  0.15463600  0.76691500  1
  Li  Li14  1  0.73131500  0.13345700  0.49588100  1
  Li  Li15  1  0.73131500  0.63345700  0.50411900  1
  Li  Li16  1  0.73084400  0.43730200  0.38082400  1
  Li  Li17  1  0.73084400  0.93730200  0.61917600  1
  Li  Li18  1  0.76915600  0.43730200  0.88082400  1
  Li  Li19  1  0.76915600  0.93730200  0.11917600  1
  Li  Li20  1  0.76868500  0.13345700  0.99588100  1
  Li  Li21  1  0.76868500  0.63345700  0.00411900  1
  Li  Li22  1  0.79722100  0.15463600  0.26691500  1
  Li  Li23  1  0.79722100  0.65463600  0.73308500  1
  Nb  Nb0  1  0.24177300  0.60881300  0.36845800  1
  Nb  Nb1  1  0.24177300  0.10881300  0.63154200  1
  Nb  Nb2  1  0.25822700  0.10881300  0.13154200  1
  Nb  Nb3  1  0.25822700  0.60881300  0.86845800  1
  Nb  Nb4  1  0.74177300  0.39118700  0.13154200  1
  Nb  Nb5  1  0.74177300  0.89118700  0.86845800  1
  Nb  Nb6  1  0.75822700  0.89118700  0.36845800  1
  Nb  Nb7  1  0.75822700  0.39118700  0.63154200  1
  H  H0  1  0.00000000  0.25000000  0.40136000  1
  H  H1  1  0.00000000  0.75000000  0.11647000  1
  H  H2  1  0.00000000  0.25000000  0.88353000  1
  H  H3  1  0.00000000  0.75000000  0.59864000  1
  H  H4  1  0.50000000  0.75000000  0.61647000  1
  H  H5  1  0.50000000  0.75000000  0.09864000  1
  H  H6  1  0.50000000  0.25000000  0.90136000  1
  H  H7  1  0.50000000  0.25000000  0.38353000  1
  O  O0  1  0.02903800  0.35327100  0.67678400  1
  O  O1  1  0.02903800  0.85327100  0.32321600  1
  O  O2  1  0.04366400  0.42615300  0.59883400  1
  O  O3  1  0.04366400  0.92615300  0.40116600  1
  O  O4  1  0.45633600  0.42615300  0.09883400  1
  O  O5  1  0.45633600  0.92615300  0.90116600  1
  O  O6  1  0.47096200  0.35327100  0.17678400  1
  O  O7  1  0.47096200  0.85327100  0.82321600  1
  O  O8  1  0.52903800  0.14672900  0.17678400  1
  O  O9  1  0.52903800  0.64672900  0.82321600  1
  O  O10  1  0.54366400  0.07384700  0.09883400  1
  O  O11  1  0.54366400  0.57384700  0.90116600  1
  O  O12  1  0.95633600  0.57384700  0.40116600  1
  O  O13  1  0.95633600  0.07384700  0.59883400  1
  O  O14  1  0.97096200  0.64672900  0.32321600  1
  O  O15  1  0.97096200  0.14672900  0.67678400  1
  F  F0  1  0.03934400  0.33681000  0.39980000  1
  F  F1  1  0.03934400  0.83681000  0.60020000  1
  F  F2  1  0.02183400  0.83828800  0.11562300  1
  F  F3  1  0.02183400  0.33828800  0.88437700  1
  F  F4  1  0.05156300  0.40751300  0.13229000  1
  F  F5  1  0.05156300  0.90751300  0.86771000  1
  F  F6  1  0.18214000  0.19800300  0.24214400  1
  F  F7  1  0.18214000  0.69800300  0.75785600  1
  F  F8  1  0.21323100  0.01770600  0.01743100  1
  F  F9  1  0.21323100  0.51770600  0.98256900  1
  F  F10  1  0.22229300  0.22517300  0.04628600  1
  F  F11  1  0.22229300  0.72517300  0.95371400  1
  F  F12  1  0.24708700  0.99380700  0.22250300  1
  F  F13  1  0.24708700  0.49380700  0.77749700  1
  F  F14  1  0.25291300  0.49380700  0.27749700  1
  F  F15  1  0.25291300  0.99380700  0.72250300  1
  F  F16  1  0.27770700  0.72517300  0.45371400  1
  F  F17  1  0.27770700  0.22517300  0.54628600  1
  F  F18  1  0.28676900  0.01770600  0.51743100  1
  F  F19  1  0.28676900  0.51770600  0.48256900  1
  F  F20  1  0.31786000  0.69800300  0.25785600  1
  F  F21  1  0.31786000  0.19800300  0.74214400  1
  F  F22  1  0.44843700  0.40751300  0.63229000  1
  F  F23  1  0.44843700  0.90751300  0.36771000  1
  F  F24  1  0.47816600  0.83828800  0.61562300  1
  F  F25  1  0.47816600  0.33828800  0.38437700  1
  F  F26  1  0.46065700  0.83681000  0.10020000  1
  F  F27  1  0.46065700  0.33681000  0.89980000  1
  F  F28  1  0.53934300  0.66319000  0.10020000  1
  F  F29  1  0.53934300  0.16319000  0.89980000  1
  F  F30  1  0.52183400  0.66171200  0.61562300  1
  F  F31  1  0.52183400  0.16171200  0.38437700  1
  F  F32  1  0.55156300  0.09248700  0.63229000  1
  F  F33  1  0.55156300  0.59248700  0.36771000  1
  F  F34  1  0.68214000  0.80199700  0.25785600  1
  F  F35  1  0.68214000  0.30199700  0.74214400  1
  F  F36  1  0.71323100  0.98229400  0.48256900  1
  F  F37  1  0.71323100  0.48229400  0.51743100  1
  F  F38  1  0.72229300  0.77482700  0.45371400  1
  F  F39  1  0.72229300  0.27482700  0.54628600  1
  F  F40  1  0.74708700  0.50619300  0.72250300  1
  F  F41  1  0.74708700  0.00619300  0.27749700  1
  F  F42  1  0.75291300  0.50619300  0.22250300  1
  F  F43  1  0.75291300  0.00619300  0.77749700  1
  F  F44  1  0.77770700  0.27482700  0.04628600  1
  F  F45  1  0.77770700  0.77482700  0.95371400  1
  F  F46  1  0.78676900  0.48229400  0.01743100  1
  F  F47  1  0.78676900  0.98229400  0.98256900  1
  F  F48  1  0.81786000  0.30199700  0.24214400  1
  F  F49  1  0.81786000  0.80199700  0.75785600  1
  F  F50  1  0.94843700  0.09248700  0.13229000  1
  F  F51  1  0.94843700  0.59248700  0.86771000  1
  F  F52  1  0.97816600  0.66171200  0.11562300  1
  F  F53  1  0.97816600  0.16171200  0.88437700  1
  F  F54  1  0.96065700  0.16319000  0.39980000  1
  F  F55  1  0.96065700  0.66319000  0.60020000  1
loop_
_geom_bond_atom_site_label_1
_geom_bond_atom_site_label_2
_geom_bond_distance
_geom_bond_site_symmetry_2
Li0 O6 2.181575 1_555
Li1 O7 2.181575 1_555
Li2 O4 2.221507 1_556
Li3 O5 2.221507 1_554
Li4 O4 2.329498 1_555
Li5 O5 2.329498 1_545
Li6 O3 2.329498 1_545
Li7 O2 2.329498 1_555
Li8 O2 2.221507 1_555
Li9 O3 2.221507 1_555
Li10 O1 2.181575 1_555
Li11 O0 2.181575 1_555
Li12 O14 2.181575 1_555
Li13 O15 2.181575 1_555
Li14 O13 2.221507 1_555
Li15 O12 2.221507 1_555
Li16 O12 2.329498 1_555
Li17 O13 2.329498 1_565
Li18 O11 2.329498 1_555
Li19 O10 2.329498 1_565
Li20 O10 2.221507 1_556
Li21 O11 2.221507 1_554
Li22 O8 2.181575 1_555
Li23 O9 2.181575 1_555
Nb0 O14 1.954092 1_455
Nb0 O12 1.983480 1_455
Nb1 O15 1.954092 1_455
Nb1 O13 1.983480 1_455
Nb2 O8 1.954092 1_555
Nb2 O10 1.983480 1_555
Nb3 O9 1.954092 1_555
Nb3 O11 1.983480 1_555
Nb4 O6 1.954092 1_555
Nb4 O4 1.983480 1_555
Nb5 O7 1.954092 1_555
Nb5 O5 1.983480 1_555
Nb6 O1 1.954092 1_655
Nb6 O3 1.983480 1_655
Nb7 O0 1.954092 1_655
Nb7 O2 1.983480 1_655
O0 O2 1.463332 1_555
O1 O3 1.463332 1_555
O4 O6 1.463332 1_555
O5 O7 1.463332 1_555
O10 O8 1.463332 1_555
O11 O9 1.463332 1_555
O12 O14 1.463332 1_555
O13 O15 1.463332 1_555
F0 H0 1.158075 1_555
F0 Li8 2.071378 1_555
F0 Li0 2.179420 1_555
F0 Li16 2.425012 1_455
F1 H3 1.158075 1_555
F1 Li9 2.071378 1_555
F1 Li1 2.179420 1_555
F1 Li17 2.425012 1_455
F2 H1 1.156886 1_555
F2 Li19 2.100147 1_455
F2 Li3 2.133291 1_555
F2 Li10 2.465419 1_555
F3 H2 1.156886 1_555
F3 Li18 2.100147 1_455
F3 Li2 2.133291 1_555
F3 Li11 2.465419 1_555
F4 Nb4 2.044483 1_455
F4 Li0 2.306372 1_555
F4 Li2 2.335652 1_554
F4 Li4 2.343251 1_555
F4 F46 2.577950 1_455
F4 F48 2.585810 1_455
F4 F42 2.672434 1_455
F4 O4 2.710161 1_555
F4 F44 2.776643 1_455
F5 Nb5 2.044483 1_455
F5 Li1 2.306372 1_555
F5 Li3 2.335652 1_556
F5 Li5 2.343251 1_565
F5 O5 2.710161 1_555
F6 Li0 1.952930 1_555
F6 Nb2 2.019617 1_555
F6 O8 2.548872 1_555
F6 Li22 2.612654 1_455
F6 H0 2.652409 1_555
F6 Li6 2.706921 1_555
F7 Li1 1.952930 1_555
F7 Nb3 2.019617 1_555
F7 O9 2.548872 1_555
F7 Li23 2.612654 1_455
F7 H3 2.652409 1_555
F7 Li7 2.706921 1_555
F8 Li3 1.978106 1_545
F8 Nb2 2.033531 1_555
F8 Li5 2.036172 1_554
F8 O10 2.565713 1_555
F8 O5 2.590141 1_544
F9 Li2 1.978106 1_555
F9 Nb3 2.033531 1_555
F9 Li4 2.036172 1_556
F9 O11 2.565713 1_555
F9 O4 2.590141 1_556
F10 Nb2 1.954702 1_555
F10 Li2 1.974357 1_554
F10 F8 2.729281 1_555
F10 F50 2.776643 1_455
F11 Nb3 1.954702 1_555
F11 Li3 1.974357 1_556
F11 F9 2.729281 1_555
F11 F51 2.776643 1_455
F12 Li10 1.963693 1_555
F12 Nb2 1.980357 1_565
F12 Li6 2.431970 1_565
F12 F50 2.672434 1_465
F12 F23 2.699674 1_555
F12 F6 2.703474 1_565
F12 O1 2.728999 1_555
F13 Li11 1.963693 1_555
F13 Nb3 1.980357 1_555
F13 Li7 2.431970 1_555
F13 F51 2.672434 1_455
F13 F22 2.699674 1_555
F13 F7 2.703474 1_555
F13 O0 2.728999 1_555
F14 Li0 1.963693 1_555
F14 Nb0 1.980357 1_555
F14 Li4 2.431970 1_555
F14 F33 2.672434 1_555
F14 F4 2.699674 1_555
F14 F20 2.703474 1_555
F14 O6 2.728999 1_555
F15 Li1 1.963693 1_555
F15 Nb1 1.980357 1_565
F15 Li5 2.431970 1_565
F15 F32 2.672434 1_565
F15 F5 2.699674 1_555
F15 F21 2.703474 1_565
F15 O7 2.728999 1_555
F16 Nb0 1.954702 1_555
F16 Li9 1.974357 1_555
F16 F19 2.729281 1_555
F16 F33 2.776643 1_555
F17 Nb1 1.954702 1_555
F17 Li8 1.974357 1_555
F17 F18 2.729281 1_555
F17 F32 2.776643 1_555
F18 Li9 1.978106 1_545
F18 Nb1 2.033531 1_555
F18 Li6 2.036172 1_555
F18 O13 2.565713 1_455
F18 F32 2.577950 1_555
F18 O3 2.590141 1_545
F19 Li8 1.978106 1_555
F19 Nb0 2.033531 1_555
F19 Li7 2.036172 1_555
F19 O12 2.565713 1_455
F19 F33 2.577950 1_555
F19 O2 2.590141 1_555
F20 Li10 1.952930 1_555
F20 Nb0 2.019617 1_555
F20 O14 2.548872 1_455
F20 F33 2.585810 1_555
F20 Li12 2.612654 1_555
F20 H5 2.652409 1_555
F20 Li4 2.706921 1_555
F20 F34 2.746896 1_555
F21 Li11 1.952930 1_555
F21 Nb1 2.019617 1_555
F21 O15 2.548872 1_455
F21 F32 2.585810 1_555
F21 Li13 2.612654 1_555
F21 H6 2.652409 1_555
F21 Li5 2.706921 1_555
F21 F35 2.746896 1_555
F22 Nb7 2.044483 1_555
F22 Li11 2.306372 1_555
F22 Li8 2.335652 1_555
F22 Li7 2.343251 1_555
F22 F37 2.577950 1_555
F22 F35 2.585810 1_555
F22 F40 2.672434 1_555
F22 O2 2.710161 1_555
F22 F39 2.776643 1_555
F23 Nb6 2.044483 1_555
F23 Li10 2.306372 1_555
F23 Li9 2.335652 1_555
F23 Li6 2.343251 1_565
F23 F36 2.577950 1_555
F23 F34 2.585810 1_555
F23 F41 2.672434 1_565
F23 O3 2.710161 1_555
F23 F38 2.776643 1_555
F24 H4 1.156886 1_555
F24 Li17 2.100147 1_555
F24 Li9 2.133291 1_555
F24 Li1 2.465419 1_555
F25 H7 1.156886 1_555
F25 Li16 2.100147 1_555
F25 Li8 2.133291 1_555
F25 Li0 2.465419 1_555
F26 H5 1.158074 1_555
F26 Li3 2.071382 1_555
F26 Li10 2.179423 1_555
F26 Li19 2.425007 1_555
F27 H6 1.158074 1_555
F27 Li2 2.071382 1_555
F27 Li11 2.179423 1_555
F27 Li18 2.425007 1_555
F28 H5 1.158074 1_555
F28 Li21 2.071382 1_555
F28 Li12 2.179423 1_555
F28 Li4 2.425007 1_555
F29 H6 1.158074 1_555
F29 Li20 2.071382 1_555
F29 Li13 2.179423 1_555
F29 Li5 2.425007 1_555
F30 H4 1.156886 1_555
F30 Li7 2.100147 1_555
F30 Li15 2.133291 1_555
F30 Li23 2.465419 1_555
F31 H7 1.156886 1_555
F31 Li6 2.100147 1_555
F31 Li14 2.133291 1_555
F31 Li22 2.465419 1_555
F32 Nb1 2.044483 1_555
F32 Li13 2.306372 1_555
F32 Li14 2.335652 1_555
F32 Li17 2.343251 1_545
F32 F43 2.699674 1_555
F32 O13 2.710161 1_555
F33 Nb0 2.044483 1_555
F33 Li12 2.306372 1_555
F33 Li15 2.335652 1_555
F33 Li16 2.343251 1_555
F33 F42 2.699674 1_555
F33 O12 2.710161 1_555
F34 Li12 1.952930 1_555
F34 Nb6 2.019617 1_555
F34 O1 2.548872 1_655
F34 Li10 2.612654 1_555
F34 H5 2.652409 1_555
F34 F41 2.703474 1_565
F34 Li19 2.706921 1_555
F35 Li13 1.952930 1_555
F35 Nb7 2.019617 1_555
F35 O0 2.548872 1_655
F35 Li11 2.612654 1_555
F35 H6 2.652409 1_555
F35 F40 2.703474 1_555
F35 Li18 2.706921 1_555
F36 Li14 1.978106 1_565
F36 Nb6 2.033531 1_555
F36 Li17 2.036172 1_555
F36 O3 2.565713 1_655
F36 O13 2.590141 1_565
F36 F38 2.729281 1_555
F37 Li15 1.978106 1_555
F37 Nb7 2.033531 1_555
F37 Li16 2.036172 1_555
F37 O2 2.565713 1_655
F37 O12 2.590141 1_555
F37 F39 2.729281 1_555
F38 Nb6 1.954702 1_555
F38 Li15 1.974357 1_555
F39 Nb7 1.954702 1_555
F39 Li14 1.974357 1_555
F40 Li23 1.963693 1_555
F40 Nb7 1.980357 1_555
F40 Li18 2.431970 1_555
F40 F51 2.699674 1_555
F40 O9 2.728999 1_555
F41 Li22 1.963693 1_555
F41 Nb6 1.980357 1_545
F41 Li19 2.431970 1_545
F41 F50 2.699674 1_555
F41 O8 2.728999 1_555
F42 Li12 1.963693 1_555
F42 Nb4 1.980357 1_555
F42 Li16 2.431970 1_555
F42 F48 2.703474 1_555
F42 O14 2.728999 1_555
F43 Li13 1.963693 1_555
F43 Nb5 1.980357 1_545
F43 Li17 2.431970 1_545
F43 F5 2.672434 1_645
F43 F49 2.703474 1_545
F43 O15 2.728999 1_555
F44 Nb4 1.954702 1_555
F44 Li20 1.974357 1_554
F44 F46 2.729281 1_555
F45 Nb5 1.954702 1_555
F45 Li21 1.974357 1_556
F45 F47 2.729281 1_555
F45 F5 2.776643 1_655
F46 Li21 1.978106 1_555
F46 Nb4 2.033531 1_555
F46 Li18 2.036172 1_554
F46 O4 2.565713 1_555
F46 O11 2.590141 1_554
F47 Li20 1.978106 1_565
F47 Nb5 2.033531 1_555
F47 Li19 2.036172 1_556
F47 O5 2.565713 1_555
F47 F5 2.577950 1_655
F47 O10 2.590141 1_566
F48 Li22 1.952930 1_555
F48 Nb4 2.019617 1_555
F48 O6 2.548872 1_555
F48 Li0 2.612654 1_655
F48 H0 2.652409 1_655
F48 Li16 2.706921 1_555
F48 F6 2.746896 1_655
F49 Li23 1.952930 1_555
F49 Nb5 2.019617 1_555
F49 O7 2.548872 1_555
F49 F5 2.585810 1_655
F49 Li1 2.612654 1_655
F49 H3 2.652409 1_655
F49 Li17 2.706921 1_555
F49 F7 2.746896 1_655
F50 Nb2 2.044483 1_655
F50 Li22 2.306372 1_555
F50 Li20 2.335652 1_554
F50 Li19 2.343251 1_545
F50 F8 2.577950 1_655
F50 F6 2.585810 1_655
F50 O10 2.710161 1_555
F51 Nb3 2.044483 1_655
F51 Li23 2.306372 1_555
F51 Li21 2.335652 1_556
F51 Li18 2.343251 1_555
F51 F9 2.577950 1_655
F51 F7 2.585810 1_655
F51 O11 2.710161 1_555
F52 H1 1.156886 1_655
F52 Li4 2.100147 1_655
F52 Li21 2.133291 1_555
F52 Li12 2.465419 1_555
F53 H2 1.156886 1_655
F53 Li5 2.100147 1_655
F53 Li20 2.133291 1_555
F53 Li13 2.465419 1_555
F54 H0 1.158074 1_655
F54 Li14 2.071382 1_555
F54 Li22 2.179423 1_555
F54 Li6 2.425007 1_655
F55 H3 1.158074 1_655
F55 Li15 2.071382 1_555
F55 Li23 2.179423 1_555
F55 Li7 2.425007 1_655
