# generated using pymatgen
data_Ba2SrI6
_symmetry_space_group_name_H-M   'P 1'
_cell_length_a   9.15187321
_cell_length_b   7.85566877
_cell_length_c   13.74771118
_cell_angle_alpha   56.42312165
_cell_angle_beta   90.00000000
_cell_angle_gamma   90.00000000
_symmetry_Int_Tables_number   1
_chemical_formula_structural   Ba2SrI6
_chemical_formula_sum   'Ba4 Sr2 I12'
_cell_volume   823.46261340
_cell_formula_units_Z   2
loop_
 _symmetry_equiv_pos_site_id
 _symmetry_equiv_pos_as_xyz
  1  'x, y, z'
loop_
 _atom_site_type_symbol
 _atom_site_label
 _atom_site_symmetry_multiplicity
 _atom_site_fract_x
 _atom_site_fract_y
 _atom_site_fract_z
 _atom_site_occupancy
  Ba  Ba0  1  0.88841576  0.78906697  0.75330380  1
  Ba  Ba1  1  0.11158424  0.21093303  0.24669620  1
  Ba  Ba2  1  0.61158424  0.78906697  0.25330380  1
  Ba  Ba3  1  0.38841576  0.21093303  0.74669620  1
  Sr  Sr0  1  0.50000000  0.50000000  -0.00000000  1
  Sr  Sr1  1  0.00000000  0.50000000  0.50000000  1
  I  I0  1  0.95999285  0.63123359  0.23431337  1
  I  I1  1  0.68283094  0.27548651  0.56030876  1
  I  I2  1  0.67629230  0.91007657  0.93289313  1
  I  I3  1  0.17629230  0.08992343  0.56710687  1
  I  I4  1  0.18283094  0.72451349  0.93969124  1
  I  I5  1  0.45999285  0.36876641  0.26568663  1
  I  I6  1  0.54000715  0.63123359  0.73431337  1
  I  I7  1  0.81716906  0.27548651  0.06030876  1
  I  I8  1  0.82370770  0.91007657  0.43289313  1
  I  I9  1  0.32370770  0.08992343  0.06710687  1
  I  I10  1  0.31716906  0.72451349  0.43969124  1
  I  I11  1  0.04000715  0.36876641  0.76568663  1
loop_
_geom_bond_atom_site_label_1
_geom_bond_atom_site_label_2
_geom_bond_distance
_geom_bond_site_symmetry_2
Ba0 I6 3.482908 1_555
Ba0 I11 3.497641 1_655
Ba0 I3 3.519606 1_665
Ba0 I4 3.556096 1_655
Ba0 I2 3.655699 1_555
Ba0 I1 3.737197 1_565
Ba0 I7 3.959933 1_556
Ba0 I8 4.003241 1_555
Ba1 I5 3.482908 1_555
Ba1 I0 3.497641 1_455
Ba1 I8 3.519606 1_445
Ba1 I7 3.556096 1_455
Ba1 I9 3.655699 1_555
Ba1 I10 3.737197 1_545
Ba1 I4 3.959933 1_554
Ba1 I3 4.003241 1_555
Ba2 I0 3.482908 1_555
Ba2 I5 3.497641 1_555
Ba2 I9 3.519606 1_565
Ba2 I10 3.556096 1_555
Ba2 I8 3.655699 1_555
Ba2 I7 3.737197 1_565
Ba2 I1 3.959933 1_555
Ba2 I2 4.003241 1_554
Ba3 I11 3.482908 1_555
Ba3 I6 3.497641 1_555
Ba3 I2 3.519606 1_545
Ba3 I1 3.556096 1_555
Ba3 I3 3.655699 1_555
Ba3 I4 3.737197 1_545
Ba3 I10 3.959933 1_555
Ba3 I9 4.003241 1_556
I0 Sr1 3.220733 1_655
I0 I4 4.221217 1_654
I0 I2 4.320958 1_554
I0 I7 4.433235 1_565
I0 I9 4.492896 1_665
I1 Sr1 3.256719 1_655
I1 I5 4.221217 1_555
I1 I2 4.268104 1_545
I1 I8 4.304929 1_545
I1 I6 4.433235 1_545
I1 I10 4.463342 1_555
I2 Sr0 3.247222 1_556
I2 I7 4.304929 1_566
I2 I9 4.323923 1_566
I3 Sr1 3.247222 1_555
I3 I4 4.268104 1_545
I3 I5 4.320958 1_555
I3 I8 4.323923 1_445
I3 I6 4.492896 1_545
I4 Sr0 3.256719 1_556
I4 I9 4.304929 1_566
I4 I7 4.463342 1_456
I5 Sr0 3.220733 1_555
I5 I8 4.492896 1_545
I6 Sr0 3.220733 1_556
I6 I8 4.320958 1_555
I7 Sr0 3.256719 1_555
I7 I8 4.268104 1_545
I8 Sr1 3.247222 1_655
I9 Sr0 3.247222 1_555
I10 Sr1 3.256719 1_555
I10 I6 4.221217 1_555
I10 I9 4.268104 1_565
I10 I3 4.304929 1_565
I10 I5 4.433235 1_565
I11 Sr1 3.220733 1_555
I11 I7 4.221217 1_456
I11 I9 4.320958 1_556
I11 I4 4.433235 1_545
I11 I2 4.492896 1_445
