# generated using pymatgen
data_CsOs2O9
_symmetry_space_group_name_H-M   'P 1'
_cell_length_a   7.79543182
_cell_length_b   7.79479104
_cell_length_c   10.56781172
_cell_angle_alpha   71.15942732
_cell_angle_beta   71.15498102
_cell_angle_gamma   42.87171420
_symmetry_Int_Tables_number   1
_chemical_formula_structural   CsOs2O9
_chemical_formula_sum   'Cs2 Os4 O18'
_cell_volume   409.74420669
_cell_formula_units_Z   2
loop_
 _symmetry_equiv_pos_site_id
 _symmetry_equiv_pos_as_xyz
  1  'x, y, z'
loop_
 _atom_site_type_symbol
 _atom_site_label
 _atom_site_symmetry_multiplicity
 _atom_site_fract_x
 _atom_site_fract_y
 _atom_site_fract_z
 _atom_site_occupancy
  Cs  Cs0  1  0.36022609  0.33580370  0.77257936  1
  Cs  Cs1  1  0.33576965  0.36040926  0.27251668  1
  Os  Os0  1  0.03035797  0.96530840  0.50238154  1
  Os  Os1  1  0.96531571  0.03039145  0.00230612  1
  Os  Os2  1  0.61820701  0.74582830  0.62432945  1
  Os  Os3  1  0.74587730  0.61822373  0.12441652  1
  O  O0  1  0.13051195  0.09199587  0.37566954  1
  O  O1  1  0.09212451  0.13047853  0.87558545  1
  O  O2  1  0.98443240  0.00375281  0.66631103  1
  O  O3  1  0.00380913  0.98438052  0.16626618  1
  O  O4  1  0.16186715  0.67434705  0.48383520  1
  O  O5  1  0.67429472  0.16200702  0.98375826  1
  O  O6  1  0.72117546  0.16103552  0.47621672  1
  O  O7  1  0.16100825  0.72115900  0.97610299  1
  O  O8  1  0.43607692  0.70207431  0.53770883  1
  O  O9  1  0.70212085  0.43609951  0.03776050  1
  O  O10  1  0.77013752  0.75235923  0.70957615  1
  O  O11  1  0.75232009  0.77031938  0.20960879  1
  O  O12  1  0.37057583  0.06722877  0.57521213  1
  O  O13  1  0.06729858  0.37046361  0.07534471  1
  O  O14  1  0.54529626  0.59457423  0.75306900  1
  O  O15  1  0.59456096  0.54538744  0.25317706  1
  O  O16  1  0.85401730  0.57923466  0.49442010  1
  O  O17  1  0.57941739  0.85393369  0.99445170  1
loop_
_geom_bond_atom_site_label_1
_geom_bond_atom_site_label_2
_geom_bond_distance
_geom_bond_site_symmetry_2
Cs0 O5 3.086334 1_555
Cs0 O14 3.161812 1_555
Cs0 O17 3.165162 1_545
Cs0 O1 3.228359 1_555
Cs0 O13 3.233987 1_556
Cs0 O4 3.245323 1_555
Cs0 O10 3.258416 1_545
Cs0 O10 3.291767 1_455
Cs0 O6 3.320553 1_555
Cs0 O12 3.347147 1_555
Cs0 O7 3.352263 1_555
Cs0 O2 3.394796 1_555
Cs0 O8 3.407457 1_555
Cs0 O2 3.597704 1_465
Cs1 O4 3.086156 1_555
Cs1 O15 3.161887 1_555
Cs1 O16 3.164976 1_455
Cs1 O0 3.230019 1_555
Cs1 O12 3.234038 1_555
Cs1 O5 3.245210 1_554
Cs1 O11 3.258528 1_455
Cs1 O11 3.291018 1_545
Cs1 O7 3.320849 1_554
Cs1 O13 3.346513 1_555
Cs1 O6 3.353988 1_555
Cs1 O3 3.393331 1_555
Cs1 O9 3.406762 1_555
Cs1 O3 3.598115 1_645
O0 Os0 1.725820 1_545
O0 O8 2.550646 1_545
O1 Os1 1.726156 1_456
O1 O9 2.551548 1_456
O2 Os0 1.731033 1_645
O2 O8 2.571026 1_645
O3 Os1 1.731387 1_465
O3 O9 2.571041 1_465
O4 Os0 1.726974 1_555
O4 O8 2.546162 1_555
O5 Os1 1.727301 1_556
O5 O9 2.546388 1_556
O6 Os0 1.726689 1_645
O7 Os1 1.726955 1_466
O8 Os2 2.172794 1_555
O8 Os0 2.260196 1_555
O9 Os3 2.172905 1_555
O9 Os1 2.260320 1_555
O10 Os2 1.739008 1_555
O11 Os3 1.739095 1_555
O12 Os2 1.729442 1_545
O12 O8 2.643262 1_545
O13 Os3 1.729577 1_455
O13 O9 2.643430 1_455
O14 Os2 1.735137 1_555
O14 O8 2.362429 1_555
O15 Os3 1.735232 1_555
O15 O9 2.362958 1_555
O16 Os2 1.724056 1_555
O16 O8 2.547219 1_555
O17 Os3 1.724193 1_556
O17 O9 2.546710 1_556
