# generated using pymatgen
data_In2Co2O7
_symmetry_space_group_name_H-M   'P 1'
_cell_length_a   6.87415554
_cell_length_b   6.87415554
_cell_length_c   6.87415554
_cell_angle_alpha   60.00000000
_cell_angle_beta   60.00000000
_cell_angle_gamma   60.00000000
_symmetry_Int_Tables_number   1
_chemical_formula_structural   In2Co2O7
_chemical_formula_sum   'In4 Co4 O14'
_cell_volume   229.69051774
_cell_formula_units_Z   2
loop_
 _symmetry_equiv_pos_site_id
 _symmetry_equiv_pos_as_xyz
  1  'x, y, z'
loop_
 _atom_site_type_symbol
 _atom_site_label
 _atom_site_symmetry_multiplicity
 _atom_site_fract_x
 _atom_site_fract_y
 _atom_site_fract_z
 _atom_site_occupancy
  In  In0  1  0.12500000  0.12500000  0.12500000  1
  In  In1  1  0.62500000  0.12500000  0.12500000  1
  In  In2  1  0.12500000  0.62500000  0.12500000  1
  In  In3  1  0.12500000  0.12500000  0.62500000  1
  Co  Co0  1  0.62500000  0.62500000  0.12500000  1
  Co  Co1  1  0.62500000  0.12500000  0.62500000  1
  Co  Co2  1  0.12500000  0.62500000  0.62500000  1
  Co  Co3  1  0.62500000  0.62500000  0.62500000  1
  O  O0  1  0.25000000  0.25000000  0.25000000  1
  O  O1  1  0.70410200  0.29589800  0.29589800  1
  O  O2  1  0.70410200  0.29589800  0.70410200  1
  O  O3  1  0.29589800  0.70410200  0.29589800  1
  O  O4  1  0.70410200  0.70410200  0.29589800  1
  O  O5  1  0.29589800  0.29589800  0.70410200  1
  O  O6  1  0.95410200  0.54589800  0.54589800  1
  O  O7  1  0.29589800  0.70410200  0.70410200  1
  O  O8  1  0.95410200  0.95410200  0.54589800  1
  O  O9  1  0.54589800  0.95410200  0.54589800  1
  O  O10  1  0.54589800  0.54589800  0.95410200  1
  O  O11  1  0.95410200  0.54589800  0.95410200  1
  O  O12  1  0.54589800  0.95410200  0.95410200  1
  O  O13  1  0.00000000  0.00000000  0.00000000  1
loop_
_geom_bond_atom_site_label_1
_geom_bond_atom_site_label_2
_geom_bond_distance
_geom_bond_site_symmetry_2
In0 O0 2.104772 1_555
In0 O13 2.104772 1_555
In0 O11 2.390312 1_454
In0 O5 2.390312 1_554
In0 O8 2.390312 1_445
In0 O12 2.390312 1_544
In0 O1 2.390312 1_455
In0 O3 2.390312 1_545
In1 O0 2.104772 1_555
In1 O13 2.104772 1_655
In1 O9 2.390312 1_545
In1 O4 2.390312 1_545
In1 O12 2.390312 1_544
In1 O1 2.390312 1_555
In1 O10 2.390312 1_554
In1 O2 2.390312 1_554
In2 O13 2.104772 1_565
In2 O0 2.104772 1_555
In2 O11 2.390312 1_454
In2 O6 2.390312 1_455
In2 O3 2.390312 1_555
In2 O4 2.390312 1_455
In2 O7 2.390312 1_554
In2 O10 2.390312 1_554
In3 O0 2.104772 1_555
In3 O13 2.104772 1_556
In3 O9 2.390312 1_545
In3 O5 2.390312 1_555
In3 O7 2.390312 1_545
In3 O6 2.390312 1_455
In3 O8 2.390312 1_445
In3 O2 2.390312 1_455
Co0 O1 1.882744 1_555
Co0 O10 1.882744 1_554
Co0 O4 1.882744 1_555
Co0 O11 1.882744 1_554
Co0 O3 1.882744 1_555
Co0 O12 1.882744 1_554
Co1 O8 1.882744 1_545
Co1 O1 1.882744 1_555
Co1 O12 1.882744 1_545
Co1 O9 1.882744 1_545
Co1 O5 1.882744 1_555
Co1 O2 1.882744 1_555
Co2 O7 1.882744 1_555
Co2 O11 1.882744 1_455
Co2 O8 1.882744 1_455
Co2 O5 1.882744 1_555
Co2 O6 1.882744 1_455
Co2 O3 1.882744 1_555
Co3 O9 1.882744 1_555
Co3 O7 1.882744 1_555
Co3 O4 1.882744 1_555
Co3 O10 1.882744 1_555
Co3 O2 1.882744 1_555
Co3 O6 1.882744 1_555
O1 O8 2.510964 1_545
O1 O11 2.510964 1_554
O1 O9 2.510964 1_545
O1 O10 2.510964 1_554
O2 O6 2.510964 1_555
O2 O8 2.510964 1_545
O3 O8 2.510964 1_455
O3 O6 2.510964 1_455
O4 O9 2.510964 1_555
O4 O6 2.510964 1_555
O5 O9 2.510964 1_545
O5 O6 2.510964 1_455
O7 O9 2.510964 1_555
O7 O8 2.510964 1_455
O10 O2 2.510964 1_555
O10 O3 2.510964 1_556
O10 O7 2.510964 1_555
O11 O4 2.510964 1_556
O11 O7 2.510964 1_655
O11 O5 2.510964 1_655
O12 O5 2.510964 1_565
O12 O3 2.510964 1_556
O12 O2 2.510964 1_565
O12 O4 2.510964 1_556
