# generated using pymatgen
data_Li6V3P8O29
_symmetry_space_group_name_H-M   'P 1'
_cell_length_a   9.80608400
_cell_length_b   9.81848863
_cell_length_c   13.92500987
_cell_angle_alpha   89.97839618
_cell_angle_beta   89.97160106
_cell_angle_gamma   60.18166121
_symmetry_Int_Tables_number   1
_chemical_formula_structural   Li6V3P8O29
_chemical_formula_sum   'Li12 V6 P16 O58'
_cell_volume   1163.21078916
_cell_formula_units_Z   2
loop_
 _symmetry_equiv_pos_site_id
 _symmetry_equiv_pos_as_xyz
  1  'x, y, z'
loop_
 _atom_site_type_symbol
 _atom_site_label
 _atom_site_symmetry_multiplicity
 _atom_site_fract_x
 _atom_site_fract_y
 _atom_site_fract_z
 _atom_site_occupancy
  Li  Li0  1  0.22922400  0.09428900  0.56043500  1
  Li  Li1  1  0.09330500  0.67861300  0.55871800  1
  Li  Li2  1  0.33069000  0.32771700  0.88589400  1
  Li  Li3  1  0.23551600  0.67260500  0.06358800  1
  Li  Li4  1  0.67084900  0.09697100  0.06369100  1
  Li  Li5  1  0.32356500  0.77235300  0.43858700  1
  Li  Li6  1  0.67964400  0.22819000  0.55830800  1
  Li  Li7  1  0.76878200  0.33473400  0.94345600  1
  Li  Li8  1  0.90515500  0.32536800  0.43552700  1
  Li  Li9  1  0.77122500  0.90538100  0.43807200  1
  Li  Li10  1  0.90029900  0.76424900  0.94090100  1
  Li  Li11  1  0.04050900  0.01711200  0.00008000  1
  V  V0  1  0.43268900  0.56787100  0.25037200  1
  V  V1  1  0.56634400  0.43550300  0.75134600  1
  V  V2  1  0.43007100  0.99706600  0.75346400  1
  V  V3  1  0.56493400  0.99891800  0.24889900  1
  V  V4  1  0.00332700  0.42862600  0.24538200  1
  V  V5  1  0.99592300  0.56845900  0.74803100  1
  P  P0  1  0.08742400  0.22467800  0.84152700  1
  P  P1  1  0.23198700  0.08645000  0.34202000  1
  P  P2  1  0.08686000  0.67990000  0.34183500  1
  P  P3  1  0.33391200  0.33435400  0.12654100  1
  P  P4  1  0.33371200  0.33342700  0.62832100  1
  P  P5  1  0.22488400  0.68345200  0.84335900  1
  P  P6  1  0.31884300  0.76800700  0.65861300  1
  P  P7  1  0.68466400  0.08882200  0.84420600  1
  P  P8  1  0.31025300  0.91429400  0.15666500  1
  P  P9  1  0.67920100  0.23155200  0.34127800  1
  P  P10  1  0.77168900  0.31595200  0.15825400  1
  P  P11  1  0.66928400  0.66489600  0.37119900  1
  P  P12  1  0.66500700  0.66784800  0.87297300  1
  P  P13  1  0.91370900  0.31681500  0.65534400  1
  P  P14  1  0.76555200  0.91490800  0.65838800  1
  P  P15  1  0.91247800  0.77141100  0.15822300  1
  O  O0  1  0.00235900  0.24686900  0.56381300  1
  O  O1  1  0.08484200  0.25091300  0.34116800  1
  O  O2  1  0.21103500  0.99469600  0.07221600  1
  O  O3  1  0.25723100  0.08414100  0.83925700  1
  O  O4  1  0.09907300  0.37569600  0.83267300  1
  O  O5  1  0.19298600  0.32468600  0.16961700  1
  O  O6  1  0.09442200  0.52239200  0.32339900  1
  O  O7  1  0.99880600  0.77354200  0.06847700  1
  O  O8  1  0.07733200  0.66168000  0.83767600  1
  O  O9  1  0.32733200  0.18767600  0.66881200  1
  O  O10  1  0.38170400  0.09772300  0.32245100  1
  O  O11  1  0.18568100  0.48765600  0.66735000  1
  O  O12  1  0.33535100  0.33765900  0.01808900  1
  O  O13  1  0.34102600  0.33425500  0.52130700  1
  O  O14  1  0.32328600  0.49004700  0.16501400  1
  O  O15  1  0.51966200  0.10802000  0.83047200  1
  O  O16  1  0.48991100  0.18918300  0.16396800  1
  O  O17  1  0.25228000  0.66291000  0.34314500  1
  O  O18  1  0.20841200  0.78856400  0.75078500  1
  O  O19  1  0.24039500  0.75694200  0.56832200  1
  O  O20  1  0.21836000  0.76714900  0.93425200  1
  O  O21  1  0.37264400  0.51881000  0.83099400  1
  O  O22  1  0.48519400  0.33132800  0.67344500  1
  O  O23  1  0.33961300  0.74245300  0.16311100  1
  O  O24  1  0.51990500  0.38050100  0.32225400  1
  O  O25  1  0.66216900  0.08372300  0.34232300  1
  O  O26  1  0.21047200  0.99361300  0.25458200  1
  O  O27  1  0.24675300  0.99907000  0.43403300  1
  O  O28  1  0.75502600  0.00346800  0.56788100  1
  O  O29  1  0.33108200  0.91902800  0.65957000  1
  O  O30  1  0.47922500  0.62111500  0.67501200  1
  O  O31  1  0.66982600  0.25230800  0.84522500  1
  O  O32  1  0.51315200  0.67363200  0.33239300  1
  O  O33  1  0.61895800  0.47113200  0.16970900  1
  O  O34  1  0.77669000  0.22549900  0.06864200  1
  O  O35  1  0.75611800  0.24578800  0.43139900  1
  O  O36  1  0.79135100  0.20695300  0.25048200  1
  O  O37  1  0.74993600  0.33308400  0.65643200  1
  O  O38  1  0.51648700  0.80782900  0.82849300  1
  O  O39  1  0.46594400  0.91403800  0.16737900  1
  O  O40  1  0.66951500  0.51241900  0.83058800  1
  O  O41  1  0.67195700  0.65668300  0.97969300  1
  O  O42  1  0.66808700  0.66899500  0.47872300  1
  O  O43  1  0.81468800  0.51199600  0.33142300  1
  O  O44  1  0.61493600  0.90806500  0.67813500  1
  O  O45  1  0.67454900  0.81303300  0.32958200  1
  O  O46  1  0.91555500  0.33934500  0.16247100  1
  O  O47  1  0.00853400  0.20484800  0.74386700  1
  O  O48  1  0.99422000  0.21533800  0.92390400  1
  O  O49  1  0.90287000  0.47680100  0.67782300  1
  O  O50  1  0.81159600  0.67370800  0.83191100  1
  O  O51  1  0.90400500  0.62213300  0.17137700  1
  O  O52  1  0.74592100  0.91882900  0.16017800  1
  O  O53  1  0.77031700  0.99595100  0.93253800  1
  O  O54  1  0.78981500  0.00161500  0.75020000  1
  O  O55  1  0.91357900  0.74962300  0.65738300  1
  O  O56  1  0.99713700  0.75896800  0.43207800  1
  O  O57  1  0.99983800  0.79286200  0.25084200  1
loop_
_geom_bond_atom_site_label_1
_geom_bond_atom_site_label_2
_geom_bond_distance
_geom_bond_site_symmetry_2
Li0 O27 1.960317 1_545
Li0 O0 1.970058 1_555
Li0 O29 2.038309 1_545
Li0 O9 2.218916 1_555
Li1 O19 1.947633 1_555
Li1 O56 1.970342 1_455
Li1 O55 2.063037 1_455
Li1 O11 2.221325 1_555
Li2 O12 1.845232 1_556
Li2 O15 2.169583 1_555
Li2 O4 2.206149 1_555
Li2 O21 2.245048 1_555
Li3 O20 1.994331 1_554
Li3 O7 2.021606 1_455
Li3 O23 2.032549 1_555
Li3 O14 2.100818 1_555
Li4 O34 1.994286 1_555
Li4 O52 2.031040 1_545
Li4 O53 2.075582 1_544
Li4 O16 2.078115 1_555
Li5 O27 1.964432 1_555
Li5 O19 2.018112 1_555
Li5 O17 2.039282 1_555
Li5 O32 2.188322 1_555
Li6 O28 1.952016 1_555
Li6 O35 1.960246 1_555
Li6 O37 2.027510 1_555
Li6 O22 2.304286 1_555
Li7 O48 1.938498 1_555
Li7 O34 2.027593 1_556
Li7 O31 2.061747 1_555
Li7 O40 2.184475 1_555
Li8 O35 1.971162 1_555
Li8 O0 1.990931 1_655
Li8 O1 2.020648 1_655
Li8 O43 2.151468 1_555
Li9 O56 1.952925 1_555
Li9 O28 2.017177 1_565
Li9 O25 2.030978 1_565
Li9 O45 2.204646 1_555
Li10 O53 1.982384 1_555
Li10 O7 2.046176 1_556
Li10 O8 2.086621 1_655
Li10 O50 2.149788 1_555
Li11 O2 1.867930 1_545
Li11 O48 2.059021 1_454
Li11 O20 2.376681 1_544
Li11 O34 2.554500 1_455
O0 P13 1.502566 1_455
O1 P1 1.540285 1_555
O1 V4 2.018620 1_555
O2 P8 1.479616 1_555
O3 P0 1.546822 1_555
O3 V2 1.894331 1_545
O4 P0 1.547626 1_555
O4 V5 2.022383 1_455
O5 P3 1.551819 1_555
O5 V4 1.929967 1_555
O6 P2 1.532733 1_555
O6 V4 1.909284 1_555
O7 P15 1.515057 1_555
O8 P5 1.566279 1_555
O8 V5 1.939543 1_455
O9 P4 1.567845 1_555
O9 V2 2.007843 1_545
O10 P1 1.550200 1_555
O10 V3 1.866533 1_545
O11 P4 1.584102 1_555
O11 V5 1.970937 1_455
O12 P3 1.510741 1_555
O13 P4 1.492074 1_555
O14 P3 1.573803 1_555
O14 V0 1.991179 1_555
O15 P7 1.545015 1_555
O15 V2 2.015480 1_545
O16 P3 1.573264 1_555
O16 V3 2.015487 1_545
O17 P2 1.546079 1_555
O17 V0 2.006563 1_555
O18 P5 1.608223 1_555
O18 P6 1.625488 1_555
O19 P6 1.506175 1_555
O20 P5 1.493249 1_555
O21 P5 1.553333 1_555
O21 V1 1.990100 1_555
O22 P4 1.603829 1_555
O22 V1 1.915028 1_555
O23 P8 1.566676 1_555
O23 V0 1.921302 1_555
O24 P9 1.541827 1_555
O24 V0 1.884819 1_555
O25 P9 1.541396 1_555
O25 V3 2.021511 1_545
O26 P1 1.596938 1_565
O26 P8 1.632382 1_555
O27 P1 1.508151 1_565
O28 P14 1.505044 1_545
O29 P6 1.546050 1_555
O29 V2 1.995122 1_555
O30 P6 1.532974 1_555
O30 V1 1.905791 1_555
O31 P7 1.538094 1_555
O31 V1 2.039197 1_555
O32 P11 1.585446 1_555
O32 V0 1.954988 1_555
O33 P10 1.523332 1_555
O33 V0 1.942566 1_555
O34 P10 1.518464 1_555
O35 P9 1.506393 1_555
O36 P9 1.612770 1_555
O36 P10 1.620456 1_555
O37 P13 1.532888 1_555
O37 V1 2.048757 1_555
O38 P12 1.550256 1_555
O38 V2 1.922362 1_555
O39 P8 1.532823 1_555
O39 V3 1.931774 1_555
O40 P12 1.616410 1_555
O40 V1 1.890247 1_555
O41 P12 1.489172 1_555
O42 P11 1.497712 1_555
O43 P11 1.569912 1_555
O43 V4 2.004998 1_655
O44 P14 1.536160 1_555
O44 V2 1.890389 1_555
O45 P11 1.589980 1_555
O45 V3 1.948675 1_555
O46 P10 1.539088 1_555
O46 V4 1.895861 1_655
O47 P13 1.605057 1_455
O47 P0 1.623815 1_555
O48 P0 1.497271 1_655
O49 P13 1.552756 1_555
O49 V5 1.848389 1_555
O50 P12 1.574156 1_555
O50 V5 1.959730 1_555
O51 P15 1.519729 1_555
O51 V4 1.944115 1_655
O52 P15 1.553156 1_555
O52 V3 1.976137 1_555
O53 P7 1.512748 1_565
O54 P14 1.618164 1_545
O54 P7 1.622159 1_555
O55 P14 1.548596 1_555
O55 V5 1.995054 1_555
O56 P2 1.508733 1_655
O57 P15 1.619364 1_555
O57 P2 1.619438 1_655
