# generated using pymatgen
data_Li2VPO4F
_symmetry_space_group_name_H-M   'P 1'
_cell_length_a   5.16959900
_cell_length_b   11.50344200
_cell_length_c   13.16305100
_cell_angle_alpha   90.00000000
_cell_angle_beta   90.00000000
_cell_angle_gamma   90.00000000
_symmetry_Int_Tables_number   1
_chemical_formula_structural   Li2VPO4F
_chemical_formula_sum   'Li16 V8 P8 O32 F8'
_cell_volume   782.78271596
_cell_formula_units_Z   8
loop_
 _symmetry_equiv_pos_site_id
 _symmetry_equiv_pos_as_xyz
  1  'x, y, z'
loop_
 _atom_site_type_symbol
 _atom_site_label
 _atom_site_symmetry_multiplicity
 _atom_site_fract_x
 _atom_site_fract_y
 _atom_site_fract_z
 _atom_site_occupancy
  Li  Li0  1  0.21605300  0.17631000  0.24318800  1
  Li  Li1  1  0.21605300  0.67631000  0.75681200  1
  Li  Li2  1  0.23132700  0.41030800  0.63302100  1
  Li  Li3  1  0.23132700  0.91030800  0.36697900  1
  Li  Li4  1  0.26867300  0.41030800  0.13302100  1
  Li  Li5  1  0.26867300  0.91030800  0.86697900  1
  Li  Li6  1  0.28394700  0.67631000  0.25681200  1
  Li  Li7  1  0.28394700  0.17631000  0.74318800  1
  Li  Li8  1  0.71605300  0.82369000  0.25681200  1
  Li  Li9  1  0.71605300  0.32369000  0.74318800  1
  Li  Li10  1  0.73132700  0.08969200  0.13302100  1
  Li  Li11  1  0.73132700  0.58969200  0.86697900  1
  Li  Li12  1  0.76867300  0.08969200  0.63302100  1
  Li  Li13  1  0.76867300  0.58969200  0.36697900  1
  Li  Li14  1  0.78394700  0.82369000  0.75681200  1
  Li  Li15  1  0.78394700  0.32369000  0.24318800  1
  V  V0  1  0.22054200  0.17139800  0.51251000  1
  V  V1  1  0.22054200  0.67139800  0.48749000  1
  V  V2  1  0.27945800  0.17139800  0.01251000  1
  V  V3  1  0.27945800  0.67139800  0.98749000  1
  V  V4  1  0.72054200  0.32860200  0.01251000  1
  V  V5  1  0.72054200  0.82860200  0.98749000  1
  V  V6  1  0.77945800  0.32860200  0.51251000  1
  V  V7  1  0.77945800  0.82860200  0.48749000  1
  P  P0  1  0.20620400  0.41455100  0.86950300  1
  P  P1  1  0.20620400  0.91455100  0.13049700  1
  P  P2  1  0.29379600  0.41455100  0.36950300  1
  P  P3  1  0.29379600  0.91455100  0.63049700  1
  P  P4  1  0.70620400  0.08544900  0.36950300  1
  P  P5  1  0.70620400  0.58544900  0.63049700  1
  P  P6  1  0.79379600  0.58544900  0.13049700  1
  P  P7  1  0.79379600  0.08544900  0.86950300  1
  O  O0  1  0.09653500  0.59398000  0.12352900  1
  O  O1  1  0.09653500  0.09398000  0.87647100  1
  O  O2  1  0.17751100  0.35483000  0.46664000  1
  O  O3  1  0.17751100  0.85483000  0.53336000  1
  O  O4  1  0.18671500  0.35451900  0.27384400  1
  O  O5  1  0.18671500  0.85451900  0.72615600  1
  O  O6  1  0.20885100  0.04377700  0.62987000  1
  O  O7  1  0.20885100  0.54377700  0.37013000  1
  O  O8  1  0.29114900  0.04377700  0.12987000  1
  O  O9  1  0.29114900  0.54377700  0.87013000  1
  O  O10  1  0.31328500  0.85451900  0.22615600  1
  O  O11  1  0.31328500  0.35451900  0.77384400  1
  O  O12  1  0.32248900  0.35483000  0.96664000  1
  O  O13  1  0.32248900  0.85483000  0.03336000  1
  O  O14  1  0.40346500  0.09398000  0.37647100  1
  O  O15  1  0.40346500  0.59398000  0.62352900  1
  O  O16  1  0.59653500  0.90602000  0.62352900  1
  O  O17  1  0.59653500  0.40602000  0.37647100  1
  O  O18  1  0.67751100  0.64517000  0.03336000  1
  O  O19  1  0.67751100  0.14517000  0.96664000  1
  O  O20  1  0.68671500  0.64548100  0.22615600  1
  O  O21  1  0.68671500  0.14548100  0.77384400  1
  O  O22  1  0.70885100  0.45622300  0.12987000  1
  O  O23  1  0.70885100  0.95622300  0.87013000  1
  O  O24  1  0.79114900  0.95622300  0.37013000  1
  O  O25  1  0.79114900  0.45622300  0.62987000  1
  O  O26  1  0.81328500  0.14548100  0.27384400  1
  O  O27  1  0.81328500  0.64548100  0.72615600  1
  O  O28  1  0.82248900  0.14517000  0.46664000  1
  O  O29  1  0.82248900  0.64517000  0.53336000  1
  O  O30  1  0.90346500  0.90602000  0.12352900  1
  O  O31  1  0.90346500  0.40602000  0.87647100  1
  F  F0  1  0.00000000  0.25000000  0.10413800  1
  F  F1  1  0.00000000  0.25000000  0.63238200  1
  F  F2  1  0.00000000  0.75000000  0.36761800  1
  F  F3  1  0.00000000  0.75000000  0.89586200  1
  F  F4  1  0.50000000  0.25000000  0.13238200  1
  F  F5  1  0.50000000  0.25000000  0.60413800  1
  F  F6  1  0.50000000  0.75000000  0.39586200  1
  F  F7  1  0.50000000  0.75000000  0.86761800  1
loop_
_geom_bond_atom_site_label_1
_geom_bond_atom_site_label_2
_geom_bond_distance
_geom_bond_site_symmetry_2
Li0 O4 2.094852 1_555
Li0 O26 2.150337 1_455
Li0 O8 2.167943 1_555
Li0 O14 2.216659 1_555
Li1 O5 2.094852 1_555
Li1 O27 2.150337 1_455
Li1 O9 2.167943 1_555
Li1 O15 2.216659 1_555
Li2 O11 2.006846 1_555
Li2 O15 2.296015 1_555
Li2 O2 2.298073 1_555
Li2 O25 2.336406 1_455
Li3 O10 2.006846 1_555
Li3 O14 2.296015 1_565
Li3 O3 2.298073 1_555
Li3 O24 2.336406 1_455
Li4 O4 2.006846 1_555
Li4 O0 2.296015 1_555
Li4 O12 2.298073 1_554
Li4 O22 2.336406 1_555
Li5 O5 2.006846 1_555
Li5 O1 2.296015 1_565
Li5 O13 2.298073 1_556
Li5 O23 2.336406 1_555
Li6 O10 2.094852 1_555
Li6 O20 2.150337 1_555
Li6 O7 2.167943 1_555
Li6 O0 2.216659 1_555
Li7 O11 2.094852 1_555
Li7 O21 2.150337 1_555
Li7 O6 2.167943 1_555
Li7 O1 2.216659 1_555
Li8 O20 2.094852 1_555
Li8 O10 2.150337 1_555
Li8 O24 2.167943 1_555
Li8 O30 2.216659 1_555
Li9 O21 2.094852 1_555
Li9 O11 2.150337 1_555
Li9 O25 2.167943 1_555
Li9 O31 2.216659 1_555
Li10 O26 2.006846 1_555
Li10 O30 2.296015 1_545
Li10 O19 2.298073 1_554
Li10 O8 2.336406 1_555
Li11 O27 2.006846 1_555
Li11 O31 2.296015 1_555
Li11 O18 2.298073 1_556
Li11 O9 2.336406 1_555
Li12 O21 2.006846 1_555
Li12 O16 2.296015 1_545
Li12 O28 2.298073 1_555
Li12 O6 2.336406 1_655
Li13 O20 2.006846 1_555
Li13 O17 2.296015 1_555
Li13 O29 2.298073 1_555
Li13 O7 2.336406 1_655
Li14 O27 2.094852 1_555
Li14 O5 2.150337 1_655
Li14 O23 2.167943 1_555
Li14 O16 2.216659 1_555
Li15 O26 2.094852 1_555
Li15 O4 2.150337 1_655
Li15 O22 2.167943 1_555
Li15 O17 2.216659 1_555
O0 P6 1.570793 1_455
O0 V3 2.212220 1_554
O1 P7 1.570793 1_455
O1 V2 2.212220 1_556
O2 P2 1.571054 1_555
O2 V6 2.165647 1_455
O2 V0 2.206029 1_555
O3 P3 1.571054 1_555
O3 V7 2.165647 1_455
O3 V1 2.206029 1_555
O4 P2 1.539098 1_555
O5 P3 1.539098 1_555
O6 P3 1.550070 1_545
O6 V0 2.131987 1_555
O7 P2 1.550070 1_555
O7 V1 2.131987 1_555
O8 P1 1.550070 1_545
O8 V2 2.131987 1_555
O9 P0 1.550070 1_555
O9 V3 2.131987 1_555
O10 P1 1.539098 1_555
O11 P0 1.539098 1_555
O12 P0 1.571054 1_555
O12 V4 2.165647 1_556
O12 V2 2.206029 1_556
O13 P1 1.571054 1_555
O13 V5 2.165647 1_554
O13 V3 2.206029 1_554
O14 P4 1.570793 1_555
O14 V0 2.212220 1_555
O15 P5 1.570793 1_555
O15 V1 2.212220 1_555
O16 P3 1.570793 1_555
O16 V7 2.212220 1_555
O17 P2 1.570793 1_555
O17 V6 2.212220 1_555
O18 P6 1.571054 1_555
O18 V3 2.165647 1_554
O18 V5 2.206029 1_554
O19 P7 1.571054 1_555
O19 V2 2.165647 1_556
O19 V4 2.206029 1_556
O20 P6 1.539098 1_555
O21 P7 1.539098 1_555
O22 P6 1.550070 1_555
O22 V4 2.131987 1_555
O23 P7 1.550070 1_565
O23 V5 2.131987 1_555
O24 P4 1.550070 1_565
O24 V7 2.131987 1_555
O25 P5 1.550070 1_555
O25 V6 2.131987 1_555
O26 P4 1.539098 1_555
O27 P5 1.539098 1_555
O28 P4 1.571054 1_555
O28 V0 2.165647 1_655
O28 V6 2.206029 1_555
O29 P5 1.571054 1_555
O29 V1 2.165647 1_655
O29 V7 2.206029 1_555
O30 P1 1.570793 1_655
O30 V5 2.212220 1_554
O31 P0 1.570793 1_655
O31 V4 2.212220 1_556
F0 V2 2.087910 1_555
F0 V4 2.087910 1_455
F0 Li0 2.305675 1_555
F0 Li15 2.305675 1_455
F0 Li10 2.339734 1_455
F0 Li4 2.339734 1_555
F1 V6 2.146424 1_455
F1 V0 2.146424 1_555
F1 Li2 2.197920 1_555
F1 Li12 2.197920 1_455
F1 Li7 2.236210 1_555
F1 Li9 2.236210 1_455
F2 V7 2.146424 1_455
F2 V1 2.146424 1_555
F2 Li3 2.197920 1_555
F2 Li13 2.197920 1_455
F2 Li6 2.236210 1_555
F2 Li8 2.236210 1_455
F3 V5 2.087910 1_455
F3 V3 2.087910 1_555
F3 Li1 2.305675 1_555
F3 Li14 2.305675 1_455
F3 Li11 2.339734 1_455
F3 Li5 2.339734 1_555
F4 V4 2.146424 1_555
F4 V2 2.146424 1_555
F4 Li10 2.197920 1_555
F4 Li4 2.197920 1_555
F4 Li0 2.236210 1_555
F4 Li15 2.236210 1_555
F5 V0 2.087910 1_555
F5 V6 2.087910 1_555
F5 Li9 2.305675 1_555
F5 Li7 2.305675 1_555
F5 Li12 2.339734 1_555
F5 Li2 2.339734 1_555
F6 V7 2.087910 1_555
F6 V1 2.087910 1_555
F6 Li8 2.305675 1_555
F6 Li6 2.305675 1_555
F6 Li13 2.339734 1_555
F6 Li3 2.339734 1_555
F7 V5 2.146424 1_555
F7 V3 2.146424 1_555
F7 Li11 2.197920 1_555
F7 Li5 2.197920 1_555
F7 Li1 2.236210 1_555
F7 Li14 2.236210 1_555
