# generated using pymatgen
data_LiVFe(P2O7)2
_symmetry_space_group_name_H-M   'P 1'
_cell_length_a   9.76287054
_cell_length_b   16.90506560
_cell_length_c   7.17343754
_cell_angle_alpha   83.95957702
_cell_angle_beta   68.15598697
_cell_angle_gamma   73.25358788
_symmetry_Int_Tables_number   1
_chemical_formula_structural   LiVFe(P2O7)2
_chemical_formula_sum   'Li4 V4 Fe4 P16 O56'
_cell_volume   1052.30506607
_cell_formula_units_Z   4
loop_
 _symmetry_equiv_pos_site_id
 _symmetry_equiv_pos_as_xyz
  1  'x, y, z'
loop_
 _atom_site_type_symbol
 _atom_site_label
 _atom_site_symmetry_multiplicity
 _atom_site_fract_x
 _atom_site_fract_y
 _atom_site_fract_z
 _atom_site_occupancy
  Li  Li0  1  0.03455100  0.43234900  0.67271600  1
  Li  Li1  1  0.40848200  0.67995200  0.32676800  1
  Li  Li2  1  0.65838900  0.18051600  0.32881300  1
  Li  Li3  1  0.28494100  0.93256600  0.67254500  1
  V  V0  1  0.11963700  0.24753700  0.72199400  1
  V  V1  1  0.37014000  0.74807600  0.72772500  1
  V  V2  1  0.61753800  0.25355100  0.72724500  1
  V  V3  1  0.86679000  0.75293700  0.72130600  1
  Fe  Fe0  1  0.00659100  0.50457000  0.26578700  1
  Fe  Fe1  1  0.25633000  0.00487100  0.26463400  1
  Fe  Fe2  1  0.50767300  0.49729200  0.27540600  1
  Fe  Fe3  1  0.75770800  0.99675000  0.27648800  1
  P  P0  1  0.14334000  0.59158100  0.52335700  1
  P  P1  1  0.39528700  0.09046200  0.52375300  1
  P  P2  1  0.11974800  0.89017800  0.08682700  1
  P  P3  1  0.36889700  0.39073800  0.08542800  1
  P  P4  1  0.11037500  0.64283100  0.91534500  1
  P  P5  1  0.36458100  0.14273800  0.91367200  1
  P  P6  1  0.14211000  0.84005800  0.47909700  1
  P  P7  1  0.38958800  0.34094900  0.47698100  1
  P  P8  1  0.64708500  0.58757500  0.52072500  1
  P  P9  1  0.89516000  0.08845600  0.51985700  1
  P  P10  1  0.61970000  0.89007000  0.08640800  1
  P  P11  1  0.87068600  0.38970500  0.08783400  1
  P  P12  1  0.61618700  0.64177000  0.91069700  1
  P  P13  1  0.86232800  0.14181900  0.91179000  1
  P  P14  1  0.64027600  0.83992500  0.47828800  1
  P  P15  1  0.89337100  0.33902600  0.47990800  1
  O  O0  1  0.05814200  0.08895600  0.39302500  1
  O  O1  1  0.01326600  0.26895200  0.53095900  1
  O  O2  1  0.01374700  0.16622200  0.85103300  1
  O  O3  1  0.08676000  0.59624500  0.11021800  1
  O  O4  1  0.33594900  0.09696100  0.11019500  1
  O  O5  1  0.19629400  0.41264300  0.14273900  1
  O  O6  1  0.09004000  0.52046600  0.48476700  1
  O  O7  1  0.34001400  0.02041900  0.48478200  1
  O  O8  1  0.03146700  0.67633100  0.52143600  1
  O  O9  1  0.28347500  0.17582300  0.52074800  1
  O  O10  1  0.22502600  0.33671400  0.60791100  1
  O  O11  1  0.23280700  0.21785100  0.90397300  1
  O  O12  1  0.13905300  0.57524600  0.75263000  1
  O  O13  1  0.38929000  0.07482500  0.75287000  1
  O  O14  1  0.16860300  0.82436700  0.24884800  1
  O  O15  1  0.41557700  0.32305200  0.24913200  1
  O  O16  1  0.17728200  0.96597600  0.07852800  1
  O  O17  1  0.42756700  0.46501000  0.08649700  1
  O  O18  1  0.30647600  0.59230600  0.38985300  1
  O  O19  1  0.55722000  0.09221200  0.38964500  1
  O  O20  1  0.16673100  0.92358000  0.49480500  1
  O  O21  1  0.40726400  0.42587600  0.49077500  1
  O  O22  1  0.26814800  0.76849100  0.51900700  1
  O  O23  1  0.51432200  0.27004100  0.52076500  1
  O  O24  1  0.26084700  0.67030600  0.85150400  1
  O  O25  1  0.51358800  0.16994900  0.84908000  1
  O  O26  1  0.20656600  0.84299400  0.88488800  1
  O  O27  1  0.45152300  0.34039900  0.88962100  1
  O  O28  1  0.57575000  0.60071000  0.11550600  1
  O  O29  1  0.82551100  0.10021300  0.11574000  1
  O  O30  1  0.44668500  0.91239000  0.14230200  1
  O  O31  1  0.69878900  0.40935000  0.14063300  1
  O  O32  1  0.59012800  0.52040000  0.47534000  1
  O  O33  1  0.84055500  0.02007400  0.47455400  1
  O  O34  1  0.53025100  0.67353600  0.51929900  1
  O  O35  1  0.77870500  0.17381600  0.51850800  1
  O  O36  1  0.47359100  0.83543400  0.60797300  1
  O  O37  1  0.72928200  0.33292200  0.60709600  1
  O  O38  1  0.48290200  0.71853400  0.90853200  1
  O  O39  1  0.73050800  0.21898500  0.91150300  1
  O  O40  1  0.63595100  0.57462300  0.75386800  1
  O  O41  1  0.88501900  0.07505000  0.75337000  1
  O  O42  1  0.66402900  0.82243800  0.25160300  1
  O  O43  1  0.91748100  0.32385500  0.25100300  1
  O  O44  1  0.67747900  0.96466400  0.08755800  1
  O  O45  1  0.92688100  0.46598400  0.08041400  1
  O  O46  1  0.80876900  0.58919400  0.39274500  1
  O  O47  1  0.65483800  0.92578200  0.49094600  1
  O  O48  1  0.91505000  0.42370300  0.49439900  1
  O  O49  1  0.75923900  0.77025800  0.53210000  1
  O  O50  1  0.76620800  0.66638200  0.84942600  1
  O  O51  1  0.70317100  0.83951200  0.89127900  1
  O  O52  1  0.95815100  0.34269900  0.88639800  1
  O  O53  1  0.94841800  0.90953000  0.14041100  1
  O  O54  1  0.97983300  0.83433200  0.60764700  1
  O  O55  1  0.98058200  0.71838100  0.90791800  1
loop_
_geom_bond_atom_site_label_1
_geom_bond_atom_site_label_2
_geom_bond_distance
_geom_bond_site_symmetry_2
Li0 O6 1.956792 1_555
Li0 O10 2.017493 1_555
Li0 O48 2.065639 1_455
Li0 O52 2.124731 1_455
Li1 O18 1.940541 1_555
Li1 O22 1.966146 1_555
Li1 O28 2.020614 1_555
Li1 O34 2.109147 1_555
Li2 O19 1.945820 1_555
Li2 O23 1.983788 1_555
Li2 O29 2.036087 1_555
Li2 O35 2.079573 1_555
Li3 O7 1.951718 1_565
Li3 O36 2.021223 1_555
Li3 O20 2.053626 1_555
Li3 O26 2.124498 1_555
Fe0 O3 1.986149 1_555
Fe0 O46 1.994755 1_455
Fe0 O5 2.009423 1_555
Fe0 O45 2.011095 1_455
Fe0 O6 2.090656 1_555
Fe0 O48 2.120972 1_455
Fe1 O4 1.987130 1_555
Fe1 O0 1.994248 1_555
Fe1 O16 2.013467 1_545
Fe1 O30 2.017126 1_545
Fe1 O7 2.098030 1_555
Fe1 O20 2.126094 1_545
Fe2 O17 1.983952 1_555
Fe2 O21 1.991929 1_555
Fe2 O31 1.996953 1_555
Fe2 O32 2.003968 1_555
Fe2 O18 2.090833 1_555
Fe2 O28 2.119947 1_555
Fe3 O44 1.983432 1_555
Fe3 O53 1.990447 1_555
Fe3 O47 1.992685 1_555
Fe3 O33 1.996308 1_565
Fe3 O19 2.089845 1_565
Fe3 O29 2.121730 1_565
O0 P9 1.512778 1_455
O1 P15 1.528445 1_455
O1 V0 1.955867 1_555
O2 P13 1.542596 1_455
O2 V0 1.911597 1_555
O3 P4 1.503537 1_554
O4 P5 1.505387 1_554
O5 P3 1.517438 1_555
O6 P0 1.526578 1_555
O7 P1 1.523658 1_555
O8 P0 1.533306 1_555
O8 V3 1.947592 1_455
O9 P1 1.541953 1_555
O9 V0 1.909132 1_555
O10 P7 1.548433 1_555
O10 V0 2.002164 1_555
O11 P5 1.542369 1_555
O11 V0 1.947457 1_555
O12 P4 1.612238 1_555
O12 P0 1.625674 1_555
O13 P5 1.618295 1_555
O13 P1 1.618782 1_555
O14 P6 1.612470 1_555
O14 P2 1.628084 1_555
O15 P7 1.605803 1_555
O15 P3 1.646497 1_555
O16 P2 1.528001 1_555
O17 P3 1.524580 1_555
O18 P0 1.525663 1_555
O19 P1 1.521471 1_555
O20 P6 1.520949 1_555
O21 P7 1.512011 1_555
O22 P6 1.546336 1_555
O22 V1 2.038363 1_555
O23 P7 1.543589 1_555
O23 V2 2.036892 1_555
O24 P4 1.559270 1_555
O24 V1 1.874315 1_555
O25 P5 1.543284 1_555
O25 V2 1.922943 1_555
O26 P2 1.546921 1_556
O26 V1 1.990042 1_555
O27 P3 1.536429 1_556
O27 V2 1.929493 1_555
O28 P12 1.519154 1_554
O29 P13 1.517276 1_554
O30 P10 1.522117 1_555
O31 P11 1.517371 1_555
O32 P8 1.510367 1_555
O33 P9 1.513035 1_555
O34 P8 1.569469 1_555
O34 V1 1.946516 1_555
O35 P9 1.560390 1_555
O35 V2 1.996008 1_555
O36 P14 1.564974 1_555
O36 V1 1.971245 1_555
O37 P15 1.548286 1_555
O37 V2 1.906252 1_555
O38 P12 1.554089 1_555
O38 V1 1.937260 1_555
O39 P13 1.546573 1_555
O39 V2 1.963622 1_555
O40 P12 1.603863 1_555
O40 P8 1.630388 1_555
O41 P13 1.597836 1_555
O41 P9 1.636066 1_555
O42 P14 1.602015 1_555
O42 P10 1.646240 1_555
O43 P15 1.607383 1_555
O43 P11 1.627449 1_555
O44 P10 1.524466 1_555
O45 P11 1.529100 1_555
O46 P8 1.508789 1_555
O47 P14 1.513712 1_555
O48 P15 1.525448 1_555
O49 P14 1.527955 1_555
O49 V3 1.957066 1_555
O50 P12 1.531368 1_555
O50 V3 1.955334 1_555
O51 P10 1.534740 1_556
O51 V3 1.938878 1_555
O52 P11 1.543056 1_556
O52 V0 2.004614 1_655
O53 P2 1.511713 1_655
O54 P6 1.533657 1_655
O54 V3 1.935324 1_555
O55 P4 1.530682 1_655
O55 V3 1.983818 1_555
