# generated using pymatgen
data_Ca5Ta4O15
_symmetry_space_group_name_H-M   'P 1'
_cell_length_a   5.53723013
_cell_length_b   5.53723013
_cell_length_c   23.45547800
_cell_angle_alpha   90.00000000
_cell_angle_beta   90.00000000
_cell_angle_gamma   120.00000159
_symmetry_Int_Tables_number   1
_chemical_formula_structural   Ca5Ta4O15
_chemical_formula_sum   'Ca10 Ta8 O30'
_cell_volume   622.81642860
_cell_formula_units_Z   2
loop_
 _symmetry_equiv_pos_site_id
 _symmetry_equiv_pos_as_xyz
  1  'x, y, z'
loop_
 _atom_site_type_symbol
 _atom_site_label
 _atom_site_symmetry_multiplicity
 _atom_site_fract_x
 _atom_site_fract_y
 _atom_site_fract_z
 _atom_site_occupancy
  Ca  Ca0  1  0.33333300  0.66666700  0.23100400  1
  Ca  Ca1  1  0.33333300  0.66666700  0.38126000  1
  Ca  Ca2  1  0.00000000  0.00000000  0.00000000  1
  Ca  Ca3  1  0.00000000  0.00000000  0.50000000  1
  Ca  Ca4  1  0.33333300  0.66666700  0.73100400  1
  Ca  Ca5  1  0.33333300  0.66666700  0.88126000  1
  Ca  Ca6  1  0.66666700  0.33333300  0.11874000  1
  Ca  Ca7  1  0.66666700  0.33333300  0.26899600  1
  Ca  Ca8  1  0.66666700  0.33333300  0.61874000  1
  Ca  Ca9  1  0.66666700  0.33333300  0.76899600  1
  Ta  Ta0  1  0.33333300  0.66666700  0.05223300  1
  Ta  Ta1  1  0.00000000  0.00000000  0.15651100  1
  Ta  Ta2  1  0.00000000  0.00000000  0.34348900  1
  Ta  Ta3  1  0.00000000  0.00000000  0.65651100  1
  Ta  Ta4  1  0.00000000  0.00000000  0.84348900  1
  Ta  Ta5  1  0.33333300  0.66666700  0.55223300  1
  Ta  Ta6  1  0.66666700  0.33333300  0.44776700  1
  Ta  Ta7  1  0.66666700  0.33333300  0.94776700  1
  O  O0  1  0.07799000  0.73998700  0.80657500  1
  O  O1  1  0.09993300  0.77653300  0.09595800  1
  O  O2  1  0.22346700  0.90006700  0.59595800  1
  O  O3  1  0.00000000  0.50000000  0.00000000  1
  O  O4  1  0.00000000  0.50000000  0.50000000  1
  O  O5  1  0.26001300  0.92201000  0.30657500  1
  O  O6  1  0.07799000  0.33800300  0.30657500  1
  O  O7  1  0.09993300  0.32340000  0.59595800  1
  O  O8  1  0.22346700  0.32340000  0.09595800  1
  O  O9  1  0.26001300  0.33800300  0.80657500  1
  O  O10  1  0.33800300  0.26001300  0.69342500  1
  O  O11  1  0.66199700  0.92201000  0.80657500  1
  O  O12  1  0.32340000  0.22346700  0.40404200  1
  O  O13  1  0.32340000  0.09993300  0.90404200  1
  O  O14  1  0.50000000  0.50000000  0.00000000  1
  O  O15  1  0.50000000  0.50000000  0.50000000  1
  O  O16  1  0.67660000  0.90006700  0.09595800  1
  O  O17  1  0.67660000  0.77653300  0.59595800  1
  O  O18  1  0.33800300  0.07799000  0.19342500  1
  O  O19  1  0.66199700  0.73998700  0.30657500  1
  O  O20  1  0.73998700  0.66199700  0.19342500  1
  O  O21  1  0.77653300  0.67660000  0.90404200  1
  O  O22  1  0.50000000  0.00000000  0.00000000  1
  O  O23  1  0.50000000  0.00000000  0.50000000  1
  O  O24  1  0.90006700  0.67660000  0.40404200  1
  O  O25  1  0.92201000  0.66199700  0.69342500  1
  O  O26  1  0.73998700  0.07799000  0.69342500  1
  O  O27  1  0.77653300  0.09993300  0.40404200  1
  O  O28  1  0.90006700  0.22346700  0.90404200  1
  O  O29  1  0.92201000  0.26001300  0.19342500  1
loop_
_geom_bond_atom_site_label_1
_geom_bond_atom_site_label_2
_geom_bond_distance
_geom_bond_site_symmetry_2
Ca0 O5 2.424849 1_555
Ca0 O6 2.424852 1_555
Ca0 O19 2.424853 1_555
Ca0 O18 2.430250 1_565
Ca0 O29 2.430252 1_455
Ca0 O20 2.430255 1_555
Ca1 O5 2.409700 1_555
Ca1 O6 2.409702 1_555
Ca1 O19 2.409704 1_555
Ca1 O24 2.485190 1_455
Ca1 O27 2.485193 1_565
Ca1 O12 2.485196 1_555
Ca1 O23 3.211210 1_565
Ca1 O4 3.211210 1_555
Ca1 O15 3.211213 1_555
Ca2 O8 2.754609 1_555
Ca2 O21 2.754609 1_444
Ca2 O13 2.754609 1_554
Ca2 O16 2.754609 1_445
Ca2 O28 2.754609 1_454
Ca2 O1 2.754609 1_545
Ca2 O14 2.768615 1_445
Ca2 O14 2.768615 1_555
Ca2 O22 2.768615 1_455
Ca2 O22 2.768615 1_555
Ca2 O3 2.768615 1_555
Ca2 O3 2.768615 1_545
Ca3 O17 2.754609 1_445
Ca3 O12 2.754609 1_555
Ca3 O7 2.754609 1_555
Ca3 O24 2.754609 1_445
Ca3 O2 2.754609 1_545
Ca3 O27 2.754609 1_455
Ca3 O15 2.768615 1_555
Ca3 O15 2.768615 1_445
Ca3 O23 2.768615 1_555
Ca3 O4 2.768615 1_545
Ca3 O4 2.768615 1_555
Ca3 O23 2.768615 1_455
Ca4 O0 2.424849 1_555
Ca4 O11 2.424852 1_555
Ca4 O9 2.424853 1_555
Ca4 O25 2.430250 1_455
Ca4 O26 2.430252 1_565
Ca4 O10 2.430255 1_555
Ca5 O0 2.409700 1_555
Ca5 O11 2.409702 1_555
Ca5 O9 2.409704 1_555
Ca5 O13 2.485190 1_565
Ca5 O28 2.485193 1_455
Ca5 O21 2.485196 1_555
Ca5 O3 3.211210 1_556
Ca5 O22 3.211210 1_566
Ca5 O14 3.211213 1_556
Ca6 O29 2.409700 1_555
Ca6 O18 2.409702 1_555
Ca6 O20 2.409704 1_555
Ca6 O16 2.485190 1_545
Ca6 O1 2.485193 1_655
Ca6 O8 2.485196 1_555
Ca6 O22 3.211210 1_555
Ca6 O3 3.211210 1_655
Ca6 O14 3.211213 1_555
Ca7 O29 2.424849 1_555
Ca7 O18 2.424852 1_555
Ca7 O20 2.424853 1_555
Ca7 O6 2.430250 1_655
Ca7 O5 2.430252 1_545
Ca7 O19 2.430255 1_555
Ca8 O26 2.409700 1_555
Ca8 O25 2.409702 1_555
Ca8 O10 2.409704 1_555
Ca8 O7 2.485190 1_655
Ca8 O2 2.485193 1_545
Ca8 O17 2.485196 1_555
Ca8 O23 3.211210 1_555
Ca8 O4 3.211210 1_655
Ca8 O15 3.211213 1_555
Ca9 O26 2.424849 1_555
Ca9 O25 2.424852 1_555
Ca9 O10 2.424853 1_555
Ca9 O11 2.430250 1_545
Ca9 O0 2.430252 1_655
Ca9 O9 2.430255 1_555
O0 Ta4 1.905467 1_565
O0 O21 2.747740 1_455
O1 Ta0 1.969373 1_555
O1 Ta1 2.130561 1_565
O1 O3 2.620950 1_555
O1 O18 2.747740 1_565
O1 O8 2.750658 1_565
O1 O16 2.750658 1_455
O2 Ta5 1.969373 1_555
O2 Ta3 2.130561 1_565
O2 O23 2.620950 1_565
O2 O25 2.747740 1_455
O2 O7 2.750658 1_565
O3 Ta0 2.013967 1_555
O3 Ta7 2.013967 1_454
O4 Ta5 2.013967 1_555
O4 Ta6 2.013967 1_455
O4 O7 2.620950 1_555
O5 Ta2 1.905467 1_565
O6 Ta2 1.905467 1_555
O7 Ta5 1.969377 1_555
O7 Ta3 2.130561 1_555
O8 Ta0 1.969378 1_555
O8 Ta1 2.130561 1_555
O9 Ta4 1.905467 1_555
O10 Ta3 1.905467 1_555
O10 O7 2.747740 1_555
O11 Ta4 1.905467 1_665
O11 O28 2.747740 1_565
O12 Ta6 1.969378 1_555
O12 Ta2 2.130561 1_555
O12 O15 2.620950 1_555
O12 O5 2.747740 1_545
O12 O24 2.750658 1_445
O12 O27 2.750658 1_455
O13 Ta7 1.969377 1_555
O13 Ta4 2.130561 1_555
O13 O22 2.620950 1_556
O13 O9 2.747740 1_555
O13 O21 2.750658 1_445
O13 O28 2.750658 1_455
O14 Ta0 2.013971 1_555
O14 Ta7 2.013971 1_554
O14 O21 2.620950 1_554
O14 O8 2.620950 1_555
O14 O22 2.768615 1_555
O14 O3 2.768615 1_555
O14 O22 2.768615 1_565
O14 O3 2.768615 1_655
O15 Ta5 2.013971 1_555
O15 Ta6 2.013971 1_555
O15 O17 2.620950 1_555
O15 O4 2.768615 1_655
O15 O23 2.768615 1_565
O15 O23 2.768615 1_555
O15 O4 2.768615 1_555
O16 Ta0 1.969377 1_555
O16 Ta1 2.130561 1_665
O16 O22 2.620950 1_565
O16 O20 2.747740 1_555
O16 O8 2.750658 1_665
O17 Ta5 1.969378 1_555
O17 Ta3 2.130561 1_665
O17 O26 2.747740 1_565
O17 O7 2.750658 1_665
O17 O2 2.750658 1_655
O18 Ta1 1.905467 1_555
O19 Ta2 1.905467 1_665
O19 O24 2.747740 1_555
O20 Ta1 1.905467 1_665
O21 Ta7 1.969378 1_555
O21 Ta4 2.130561 1_665
O21 O28 2.750658 1_565
O22 Ta0 2.013967 1_545
O22 Ta7 2.013967 1_554
O22 O3 2.768615 1_655
O22 O3 2.768615 1_545
O23 Ta5 2.013967 1_545
O23 Ta6 2.013967 1_555
O23 O27 2.620950 1_555
O23 O4 2.768615 1_655
O23 O4 2.768615 1_545
O24 Ta6 1.969377 1_555
O24 Ta2 2.130561 1_665
O24 O4 2.620950 1_655
O24 O27 2.750658 1_565
O25 Ta3 1.905467 1_665
O26 Ta3 1.905467 1_655
O27 Ta6 1.969373 1_555
O27 Ta2 2.130561 1_655
O27 O6 2.747740 1_655
O28 Ta7 1.969373 1_555
O28 Ta4 2.130561 1_655
O28 O3 2.620950 1_656
O29 Ta1 1.905467 1_655
O29 O8 2.747740 1_655
