# generated using pymatgen
data_LiV6O7F5
_symmetry_space_group_name_H-M   'P 1'
_cell_length_a   4.89723700
_cell_length_b   5.67184945
_cell_length_c   7.83643250
_cell_angle_alpha   84.69169621
_cell_angle_beta   88.27370734
_cell_angle_gamma   87.11504597
_symmetry_Int_Tables_number   1
_chemical_formula_structural   LiV6O7F5
_chemical_formula_sum   'Li1 V6 O7 F5'
_cell_volume   216.38861346
_cell_formula_units_Z   1
loop_
 _symmetry_equiv_pos_site_id
 _symmetry_equiv_pos_as_xyz
  1  'x, y, z'
loop_
 _atom_site_type_symbol
 _atom_site_label
 _atom_site_symmetry_multiplicity
 _atom_site_fract_x
 _atom_site_fract_y
 _atom_site_fract_z
 _atom_site_occupancy
  Li  Li0  1  0.49858700  0.89531700  0.10424800  1
  V  V0  1  0.99656900  0.00504100  0.97883300  1
  V  V1  1  0.44076700  0.46123900  0.99584500  1
  V  V2  1  0.55888000  0.20918000  0.34064300  1
  V  V3  1  0.52457400  0.84573000  0.67017600  1
  V  V4  1  0.99478700  0.66135700  0.33969800  1
  V  V5  1  0.98861200  0.31608600  0.67198400  1
  O  O0  1  0.17931800  0.29567900  0.88938500  1
  O  O1  1  0.30902300  0.47103600  0.23953500  1
  O  O2  1  0.31856500  0.79946800  0.90362400  1
  O  O3  1  0.68652400  0.18864000  0.09149400  1
  O  O4  1  0.68776600  0.88026900  0.42735000  1
  O  O5  1  0.80593800  0.02940000  0.75593800  1
  O  O6  1  0.82354900  0.38447200  0.44363800  1
  F  F0  1  0.18046400  0.96626300  0.22451000  1
  F  F1  1  0.19630000  0.63575500  0.57688800  1
  F  F2  1  0.31514800  0.14401400  0.56553000  1
  F  F3  1  0.68730900  0.52379400  0.77211400  1
  F  F4  1  0.80862700  0.69612600  0.09652200  1
loop_
_geom_bond_atom_site_label_1
_geom_bond_atom_site_label_2
_geom_bond_distance
_geom_bond_site_symmetry_2
Li0 O3 1.934617 1_565
Li0 O2 1.958168 1_554
Li0 O4 2.714746 1_555
Li0 O1 2.733191 1_555
O0 V1 1.883477 1_555
O0 V5 1.958709 1_455
O0 V0 1.976515 1_455
O1 V2 1.997144 1_555
O1 V1 2.001985 1_554
O1 V4 2.016512 1_455
O2 V0 2.019784 1_465
O2 V1 2.052945 1_555
O2 V3 2.063979 1_555
O3 V1 2.013321 1_554
O3 V0 2.024712 1_554
O3 V2 2.043910 1_555
O4 V2 2.003264 1_565
O4 V3 2.037947 1_555
O4 V4 2.044944 1_555
O5 V3 1.940457 1_545
O5 V5 1.946836 1_555
O5 V0 1.995548 1_555
O6 V2 1.913413 1_555
O6 V4 1.920345 1_555
O6 V5 1.983195 1_555
F0 Li0 1.842774 1_555
F0 V4 2.110069 1_455
F0 V0 2.138248 1_464
F0 V2 2.598363 1_565
F1 V4 2.120372 1_455
F1 V5 2.183386 1_455
F1 V3 2.227533 1_555
F1 F2 2.829321 1_555
F1 O2 2.892205 1_555
F1 F3 2.900689 1_555
F1 O1 2.912660 1_555
F1 F3 2.950745 1_455
F1 F2 2.962318 1_565
F2 V5 2.029483 1_455
F2 V3 2.050835 1_545
F2 V2 2.112870 1_555
F2 O4 2.578003 1_545
F2 O0 2.804972 1_555
F2 O6 2.852263 1_455
F3 V5 2.026609 1_555
F3 V3 2.056555 1_555
F3 V1 2.111402 1_555
F3 O6 2.813414 1_555
F3 O0 2.814917 1_655
F4 Li0 1.849289 1_555
F4 V4 2.125678 1_555
F4 V0 2.140050 1_564
F4 V1 2.482823 1_554
