# generated using pymatgen
data_Ba2SrI6
_symmetry_space_group_name_H-M   'P 1'
_cell_length_a   8.64323605
_cell_length_b   8.64323605
_cell_length_c   7.35567100
_cell_angle_alpha   90.00000000
_cell_angle_beta   90.00000000
_cell_angle_gamma   120.00000035
_symmetry_Int_Tables_number   1
_chemical_formula_structural   Ba2SrI6
_chemical_formula_sum   'Ba2 Sr1 I6'
_cell_volume   475.88900805
_cell_formula_units_Z   1
loop_
 _symmetry_equiv_pos_site_id
 _symmetry_equiv_pos_as_xyz
  1  'x, y, z'
loop_
 _atom_site_type_symbol
 _atom_site_label
 _atom_site_symmetry_multiplicity
 _atom_site_fract_x
 _atom_site_fract_y
 _atom_site_fract_z
 _atom_site_occupancy
  Ba  Ba0  1  0.33333300  0.66666700  0.50000000  1
  Ba  Ba1  1  0.66666700  0.33333300  0.50000000  1
  Sr  Sr0  1  0.00000000  0.00000000  0.00000000  1
  I  I0  1  0.00000000  0.67198100  0.75906500  1
  I  I1  1  0.00000000  0.32801900  0.24093500  1
  I  I2  1  0.32801900  0.32801900  0.75906500  1
  I  I3  1  0.67198100  0.67198100  0.24093500  1
  I  I4  1  0.32801900  0.00000000  0.24093500  1
  I  I5  1  0.67198100  0.00000000  0.75906500  1
loop_
_geom_bond_atom_site_label_1
_geom_bond_atom_site_label_2
_geom_bond_distance
_geom_bond_site_symmetry_2
Ba0 I0 3.473663 1_555
Ba0 I4 3.473663 1_565
Ba0 I5 3.473667 1_565
Ba0 I1 3.473667 1_555
Ba0 I2 3.473670 1_555
Ba0 I3 3.473670 1_555
Ba1 I5 3.473663 1_555
Ba1 I1 3.473663 1_655
Ba1 I0 3.473667 1_655
Ba1 I4 3.473667 1_555
Ba1 I2 3.473670 1_555
Ba1 I3 3.473670 1_555
I0 Sr0 3.343483 1_566
I0 I4 4.538873 1_566
I0 I3 4.538873 1_456
I0 I1 4.626199 1_556
I1 Sr0 3.343483 1_555
I1 I5 4.538873 1_454
I1 I2 4.538873 1_554
I2 Sr0 3.343483 1_556
I2 I4 4.538873 1_556
I2 I3 4.626199 1_556
I3 Sr0 3.343483 1_665
I3 I5 4.538873 1_564
I4 Sr0 3.343483 1_555
I4 I5 4.626199 1_554
I5 Sr0 3.343483 1_656
