# generated using pymatgen
data_Li3Nb4O12
_symmetry_space_group_name_H-M   'P 1'
_cell_length_a   9.85224689
_cell_length_b   9.85224689
_cell_length_c   9.85224626
_cell_angle_alpha   31.10181684
_cell_angle_beta   31.10181684
_cell_angle_gamma   31.10181734
_symmetry_Int_Tables_number   1
_chemical_formula_structural   Li3Nb4O12
_chemical_formula_sum   'Li3 Nb4 O12'
_cell_volume   226.41049057
_cell_formula_units_Z   1
loop_
 _symmetry_equiv_pos_site_id
 _symmetry_equiv_pos_as_xyz
  1  'x, y, z'
loop_
 _atom_site_type_symbol
 _atom_site_label
 _atom_site_symmetry_multiplicity
 _atom_site_fract_x
 _atom_site_fract_y
 _atom_site_fract_z
 _atom_site_occupancy
  Li  Li0  1  0.14108800  0.14108800  0.14108800  1
  Li  Li1  1  0.89117800  0.89117800  0.89117800  1
  Li  Li2  1  0.36127900  0.36127900  0.36127900  1
  Nb  Nb0  1  0.00781800  0.00781800  0.00781800  1
  Nb  Nb1  1  0.50325100  0.50325100  0.50325100  1
  Nb  Nb2  1  0.75497800  0.75497800  0.75497800  1
  Nb  Nb3  1  0.25188000  0.25188000  0.25188000  1
  O  O0  1  0.87666100  0.24723100  0.49028200  1
  O  O1  1  0.00037600  0.37544500  0.74792600  1
  O  O2  1  0.74792600  0.00037600  0.37544500  1
  O  O3  1  0.37544500  0.74792600  0.00037600  1
  O  O4  1  0.74407900  0.50369600  0.12357200  1
  O  O5  1  0.50369600  0.12357200  0.74407900  1
  O  O6  1  0.49028200  0.87666100  0.24723100  1
  O  O7  1  0.24723100  0.49028200  0.87666100  1
  O  O8  1  0.62814400  0.19555100  0.04621500  1
  O  O9  1  0.19555100  0.04621500  0.62814400  1
  O  O10  1  0.04621500  0.62814400  0.19555100  1
  O  O11  1  0.12357200  0.74407900  0.50369600  1
loop_
_geom_bond_atom_site_label_1
_geom_bond_atom_site_label_2
_geom_bond_distance
_geom_bond_site_symmetry_2
Li0 O5 2.064511 1_554
Li0 O11 2.064511 1_545
Li0 O4 2.064511 1_455
Li0 O0 2.421458 1_455
Li0 O6 2.421458 1_545
Li0 O7 2.421458 1_554
Li1 O0 2.075391 1_565
Li1 O6 2.075391 1_556
Li1 O7 2.075391 1_655
Li1 O10 2.408027 1_656
Li1 O8 2.408027 1_566
Li1 O9 2.408027 1_665
Li2 O1 2.009619 1_555
Li2 O3 2.009619 1_555
Li2 O2 2.009619 1_555
Li2 O8 2.562361 1_555
Li2 O10 2.562361 1_555
Li2 O9 2.562361 1_555
Nb0 O2 1.914425 1_455
Nb0 O3 1.914425 1_545
Nb0 O1 1.914425 1_554
Nb0 O9 2.117356 1_554
Nb0 O8 2.117356 1_455
Nb0 O10 2.117357 1_545
Nb1 O7 1.941328 1_555
Nb1 O0 1.941328 1_555
Nb1 O6 1.941328 1_555
Nb1 O4 2.100680 1_555
Nb1 O11 2.100680 1_555
Nb1 O5 2.100680 1_555
Nb2 O4 1.928619 1_556
Nb2 O5 1.928619 1_565
Nb2 O11 1.928619 1_655
Nb2 O2 2.123118 1_565
Nb2 O1 2.123119 1_655
Nb2 O3 2.123119 1_556
Nb3 O9 1.922281 1_555
Nb3 O10 1.922281 1_555
Nb3 O8 1.922281 1_555
Nb3 O7 2.102649 1_554
Nb3 O6 2.102650 1_545
Nb3 O0 2.102650 1_455
O8 O9 2.691142 1_654
O10 O9 2.691142 1_564
O10 O8 2.691142 1_465
