# generated using pymatgen
data_Zr2N2O
_symmetry_space_group_name_H-M   'P 1'
_cell_length_a   8.77521326
_cell_length_b   8.78085956
_cell_length_c   8.79932431
_cell_angle_alpha   109.42557726
_cell_angle_beta   109.42335304
_cell_angle_gamma   109.43094456
_symmetry_Int_Tables_number   1
_chemical_formula_structural   Zr2N2O
_chemical_formula_sum   'Zr16 N16 O8'
_cell_volume   522.80188592
_cell_formula_units_Z   8
loop_
 _symmetry_equiv_pos_site_id
 _symmetry_equiv_pos_as_xyz
  1  'x, y, z'
loop_
 _atom_site_type_symbol
 _atom_site_label
 _atom_site_symmetry_multiplicity
 _atom_site_fract_x
 _atom_site_fract_y
 _atom_site_fract_z
 _atom_site_occupancy
  Zr  Zr0  1  0.51238688  0.49871410  0.50098492  1
  Zr  Zr1  1  0.21292062  0.75715055  0.46466724  1
  Zr  Zr2  1  0.96470333  0.21481273  0.25810170  1
  Zr  Zr3  1  0.47021825  0.72071758  0.24751446  1
  Zr  Zr4  1  0.29145275  0.24811010  0.03433844  1
  Zr  Zr5  1  0.25267119  0.02956028  0.28601974  1
  Zr  Zr6  1  0.24547712  0.53426704  0.78453588  1
  Zr  Zr7  1  0.74770031  0.96626384  0.70815782  1
  Zr  Zr8  1  0.50038702  0.00788529  0.01113308  1
  Zr  Zr9  1  0.99123179  0.50371355  0.99477676  1
  Zr  Zr10  1  0.74427695  0.46535887  0.21545800  1
  Zr  Zr11  1  0.99942825  0.99613553  0.48948964  1
  Zr  Zr12  1  0.71815128  0.75061260  0.96870393  1
  Zr  Zr13  1  0.53827346  0.28164647  0.75012871  1
  Zr  Zr14  1  0.02753187  0.77976933  0.74912346  1
  Zr  Zr15  1  0.78599194  0.24956068  0.53579727  1
  N  N0  1  0.77007570  0.72985105  0.73741309  1
  N  N1  1  0.53863480  0.51000545  0.27166707  1
  N  N2  1  0.50804537  0.76674093  0.03923956  1
  N  N3  1  0.24077422  0.76832573  0.22957747  1
  N  N4  1  0.95870893  0.72655053  0.47037633  1
  N  N5  1  0.72835041  0.23620604  0.26854796  1
  N  N6  1  0.05144144  0.27485558  0.53454111  1
  N  N7  1  0.76282797  0.22716006  0.77817452  1
  N  N8  1  0.96644469  0.95920421  0.22686045  1
  N  N9  1  0.25870323  0.98978226  0.03052521  1
  N  N10  1  0.48370320  0.22509771  0.95328019  1
  N  N11  1  0.77295991  0.54591113  0.01134591  1
  N  N12  1  0.99558176  0.53707767  0.76616160  1
  N  N13  1  0.72674802  0.96399821  0.45863978  1
  N  N14  1  0.27236290  0.03074127  0.54579581  1
  N  N15  1  0.53325099  0.26484122  0.48817305  1
  O  O0  1  0.27788462  0.75823834  0.72535952  1
  O  O1  1  0.22724316  0.27938693  0.26417119  1
  O  O2  1  0.46478911  0.73998211  0.51996114  1
  O  O3  1  0.03229235  0.05157283  0.77553641  1
  O  O4  1  0.73681079  0.01143701  0.96515505  1
  O  O5  1  0.22224490  0.44652699  0.98053844  1
  O  O6  1  0.01357464  0.46308499  0.23637891  1
  O  O7  1  0.45374988  0.48915026  0.72365419  1
loop_
_geom_bond_atom_site_label_1
_geom_bond_atom_site_label_2
_geom_bond_distance
_geom_bond_site_symmetry_2
N0 Zr14 2.112612 1_655
N0 Zr0 2.137690 1_555
N0 Zr12 2.192747 1_555
N0 Zr7 2.237689 1_555
N1 Zr0 2.135782 1_555
N1 Zr10 2.142446 1_555
N1 Zr3 2.178245 1_555
N1 Zr4 2.197393 1_555
N1 N4 3.016519 1_555
N2 Zr3 2.107179 1_555
N2 Zr12 2.163550 1_554
N2 Zr6 2.211756 1_554
N2 Zr8 2.231873 1_565
N3 Zr5 2.137233 1_565
N3 Zr3 2.155475 1_555
N3 Zr1 2.191792 1_555
N3 Zr9 2.207968 1_454
N4 Zr14 2.159600 1_655
N4 Zr10 2.175271 1_555
N4 Zr1 2.176173 1_655
N4 Zr11 2.211782 1_555
N5 Zr8 2.109291 1_555
N5 Zr2 2.172544 1_555
N5 Zr10 2.183602 1_555
N5 Zr15 2.187619 1_555
N6 Zr2 2.103050 1_455
N6 Zr6 2.126545 1_555
N6 Zr11 2.201440 1_445
N6 Zr15 2.269355 1_455
N6 O7 2.891937 1_555
N7 Zr7 2.109463 1_545
N7 Zr13 2.134268 1_555
N7 Zr9 2.165455 1_555
N7 Zr15 2.273637 1_555
N7 O4 2.895238 1_555
N8 Zr11 2.126892 1_555
N8 Zr12 2.132530 1_554
N8 Zr2 2.174539 1_565
N8 Zr5 2.201216 1_665
N9 Zr8 2.141663 1_565
N9 Zr4 2.176768 1_565
N9 Zr5 2.179045 1_565
N9 Zr14 2.186332 1_554
N10 Zr4 2.080123 1_556
N10 Zr13 2.161692 1_555
N10 Zr8 2.168059 1_556
N10 Zr10 2.246345 1_556
N10 N14 2.934214 1_555
N11 Zr9 2.109321 1_554
N11 Zr12 2.122906 1_554
N11 Zr10 2.194690 1_555
N11 Zr13 2.243531 1_554
N11 N8 2.971590 1_555
N12 Zr14 2.117869 1_655
N12 Zr9 2.137686 1_555
N12 Zr6 2.153683 1_655
N12 Zr15 2.211885 1_555
N13 Zr3 2.112217 1_555
N13 Zr7 2.134208 1_555
N13 Zr15 2.187289 1_565
N13 Zr11 2.224121 1_555
N14 Zr1 2.081078 1_545
N14 Zr13 2.164679 1_555
N14 Zr11 2.168070 1_445
N14 Zr5 2.230567 1_555
N15 Zr0 2.091271 1_555
N15 Zr15 2.174798 1_555
N15 Zr5 2.180094 1_555
N15 Zr13 2.244716 1_555
O0 Zr6 2.151119 1_555
O0 Zr1 2.167761 1_555
O0 Zr8 2.271812 1_566
O0 Zr14 2.336968 1_555
O0 O2 2.817098 1_555
O1 Zr2 2.158918 1_455
O1 Zr0 2.229070 1_555
O1 Zr4 2.230311 1_555
O1 Zr5 2.340238 1_555
O1 O6 2.854281 1_555
O2 Zr7 2.156076 1_555
O2 Zr1 2.167879 1_555
O2 Zr0 2.256187 1_555
O2 Zr3 2.364262 1_555
O3 Zr7 2.150482 1_445
O3 Zr4 2.160167 1_556
O3 Zr11 2.294414 1_445
O3 Zr14 2.304385 1_545
O3 O5 2.837693 1_555
O4 Zr7 2.202883 1_545
O4 Zr2 2.228550 1_556
O4 Zr8 2.234390 1_556
O4 Zr12 2.252677 1_545
O5 Zr6 2.150088 1_555
O5 Zr4 2.165608 1_556
O5 Zr9 2.276335 1_455
O5 Zr3 2.324368 1_556
O6 Zr2 2.163955 1_455
O6 Zr9 2.226907 1_454
O6 Zr1 2.229381 1_555
O6 Zr10 2.315868 1_455
O7 Zr6 2.185396 1_555
O7 Zr0 2.205007 1_555
O7 Zr13 2.234034 1_555
O7 Zr12 2.266996 1_555
