# generated using pymatgen
data_RbH3(SeO3)2
_symmetry_space_group_name_H-M   'P 1'
_cell_length_a   6.16054500
_cell_length_b   12.39267400
_cell_length_c   20.11637200
_cell_angle_alpha   90.00000000
_cell_angle_beta   90.00000000
_cell_angle_gamma   90.00000000
_symmetry_Int_Tables_number   1
_chemical_formula_structural   RbH3(SeO3)2
_chemical_formula_sum   'Rb8 H24 Se16 O48'
_cell_volume   1535.79701012
_cell_formula_units_Z   8
loop_
 _symmetry_equiv_pos_site_id
 _symmetry_equiv_pos_as_xyz
  1  'x, y, z'
loop_
 _atom_site_type_symbol
 _atom_site_label
 _atom_site_symmetry_multiplicity
 _atom_site_fract_x
 _atom_site_fract_y
 _atom_site_fract_z
 _atom_site_occupancy
  Rb  Rb0  1  0.02386100  0.37506900  0.14141600  1
  Rb  Rb1  1  0.97613900  0.87506900  0.35858400  1
  Rb  Rb2  1  0.52386100  0.12493100  0.85858400  1
  Rb  Rb3  1  0.47613900  0.62493100  0.64141600  1
  Rb  Rb4  1  0.52267600  0.62598400  0.85841800  1
  Rb  Rb5  1  0.47732400  0.12598400  0.64158200  1
  Rb  Rb6  1  0.02267600  0.87401600  0.14158200  1
  Rb  Rb7  1  0.97732400  0.37401600  0.35841800  1
  H  H0  1  0.06450700  0.25354000  0.79888200  1
  H  H1  1  0.93549300  0.75354000  0.70111800  1
  H  H2  1  0.56450700  0.24646000  0.20111800  1
  H  H3  1  0.43549300  0.74646000  0.29888200  1
  H  H4  1  0.56336200  0.74201000  0.20633400  1
  H  H5  1  0.43663800  0.24201000  0.29366600  1
  H  H6  1  0.06336200  0.75799000  0.79366600  1
  H  H7  1  0.93663800  0.25799000  0.70633400  1
  H  H8  1  0.71818300  0.49027100  0.01420100  1
  H  H9  1  0.28181700  0.99027100  0.48579900  1
  H  H10  1  0.21818300  0.00972900  0.98579900  1
  H  H11  1  0.78181700  0.50972900  0.51420100  1
  H  H12  1  0.21836900  0.50935800  0.98579600  1
  H  H13  1  0.78163100  0.00935800  0.51420400  1
  H  H14  1  0.71836900  0.99064200  0.01420400  1
  H  H15  1  0.28163100  0.49064200  0.48579600  1
  H  H16  1  0.35209100  0.38706900  0.87262100  1
  H  H17  1  0.64790900  0.88706900  0.62737900  1
  H  H18  1  0.85209100  0.11293100  0.12737900  1
  H  H19  1  0.14790900  0.61293100  0.37262100  1
  H  H20  1  0.85454000  0.61218900  0.12738600  1
  H  H21  1  0.14546000  0.11218900  0.37261400  1
  H  H22  1  0.35454000  0.88781100  0.87261400  1
  H  H23  1  0.64546000  0.38781100  0.62738600  1
  Se  Se0  1  0.97263000  0.39859300  0.86548500  1
  Se  Se1  1  0.02737000  0.89859300  0.63451500  1
  Se  Se2  1  0.47263000  0.10140700  0.13451500  1
  Se  Se3  1  0.52737000  0.60140700  0.36548500  1
  Se  Se4  1  0.47569400  0.60246400  0.13488000  1
  Se  Se5  1  0.52430600  0.10246400  0.36512000  1
  Se  Se6  1  0.97569400  0.89753600  0.86512000  1
  Se  Se7  1  0.02430600  0.39753600  0.63488000  1
  Se  Se8  1  0.48779400  0.33335100  0.00573900  1
  Se  Se9  1  0.51220600  0.83335100  0.49426100  1
  Se  Se10  1  0.98779400  0.16664900  0.99426100  1
  Se  Se11  1  0.01220600  0.66664900  0.50573900  1
  Se  Se12  1  0.98885700  0.66657600  0.99401300  1
  Se  Se13  1  0.01114300  0.16657600  0.50598700  1
  Se  Se14  1  0.48885700  0.83342400  0.00598700  1
  Se  Se15  1  0.51114300  0.33342400  0.49401300  1
  O  O0  1  0.93570400  0.25992900  0.82780600  1
  O  O1  1  0.06429600  0.75992900  0.67219400  1
  O  O2  1  0.43570400  0.24007100  0.17219400  1
  O  O3  1  0.56429600  0.74007100  0.32780600  1
  O  O4  1  0.44466100  0.74036900  0.17348500  1
  O  O5  1  0.55533900  0.24036900  0.32651500  1
  O  O6  1  0.94466100  0.75963100  0.82651500  1
  O  O7  1  0.05533900  0.25963100  0.67348500  1
  O  O8  1  0.25352600  0.40319800  0.01933200  1
  O  O9  1  0.74647400  0.90319800  0.48066800  1
  O  O10  1  0.75352600  0.09680200  0.98066800  1
  O  O11  1  0.24647400  0.59680200  0.51933200  1
  O  O12  1  0.75473800  0.59648700  0.98062400  1
  O  O13  1  0.24526200  0.09648700  0.51937600  1
  O  O14  1  0.25473800  0.90351300  0.01937600  1
  O  O15  1  0.74526200  0.40351300  0.48062400  1
  O  O16  1  0.24767300  0.41050100  0.83522100  1
  O  O17  1  0.75232700  0.91050100  0.66477900  1
  O  O18  1  0.74767300  0.08949900  0.16477900  1
  O  O19  1  0.25232700  0.58949900  0.33522100  1
  O  O20  1  0.75087900  0.58704400  0.16449500  1
  O  O21  1  0.24912100  0.08704400  0.33550500  1
  O  O22  1  0.25087900  0.91295600  0.83550500  1
  O  O23  1  0.74912100  0.41295600  0.66449500  1
  O  O24  1  0.53452400  0.34650300  0.92225600  1
  O  O25  1  0.46547600  0.84650300  0.57774400  1
  O  O26  1  0.03452400  0.15349700  0.07774400  1
  O  O27  1  0.96547600  0.65349700  0.42225600  1
  O  O28  1  0.03576400  0.65428000  0.07752700  1
  O  O29  1  0.96423600  0.15428000  0.42247300  1
  O  O30  1  0.53576400  0.84572000  0.92247300  1
  O  O31  1  0.46423600  0.34572000  0.57752700  1
  O  O32  1  0.84011100  0.47827700  0.81499900  1
  O  O33  1  0.15988900  0.97827700  0.68500100  1
  O  O34  1  0.34011100  0.02172300  0.18500100  1
  O  O35  1  0.65988900  0.52172300  0.31499900  1
  O  O36  1  0.34209900  0.52203300  0.18480700  1
  O  O37  1  0.65790100  0.02203300  0.31519300  1
  O  O38  1  0.84209900  0.97796700  0.81519300  1
  O  O39  1  0.15790100  0.47796700  0.68480700  1
  O  O40  1  0.69360500  0.41895000  0.04137300  1
  O  O41  1  0.30639500  0.91895000  0.45862700  1
  O  O42  1  0.19360500  0.08105000  0.95862700  1
  O  O43  1  0.80639500  0.58105000  0.54137300  1
  O  O44  1  0.19461400  0.58068800  0.95857400  1
  O  O45  1  0.80538600  0.08068800  0.54142600  1
  O  O46  1  0.69461400  0.91931200  0.04142600  1
  O  O47  1  0.30538600  0.41931200  0.45857400  1
loop_
_geom_bond_atom_site_label_1
_geom_bond_atom_site_label_2
_geom_bond_distance
_geom_bond_site_symmetry_2
H0 O0 0.987143 1_455
H0 Rb2 3.462769 1_555
H1 O1 0.987143 1_655
H1 Rb3 3.462769 1_555
H2 O2 0.987143 1_555
H2 Rb0 3.462769 1_655
H3 O3 0.987143 1_555
H3 Rb1 3.462769 1_455
H4 O4 0.985809 1_555
H4 Rb6 3.518476 1_655
H5 O5 0.985809 1_555
H5 Rb7 3.518476 1_455
H6 O6 0.985809 1_455
H6 Rb4 3.518476 1_555
H7 O7 0.985809 1_655
H7 Rb5 3.518476 1_555
H8 O40 1.050193 1_555
H8 O12 1.496526 1_554
H9 O41 1.050193 1_555
H9 O13 1.496526 1_565
H10 O42 1.050193 1_555
H10 O14 1.496526 1_546
H11 O43 1.050193 1_555
H11 O15 1.496526 1_555
H12 O44 1.050092 1_555
H12 O8 1.494271 1_556
H13 O45 1.050092 1_555
H13 O9 1.494271 1_545
H14 O46 1.050092 1_555
H14 O10 1.494271 1_564
H15 O47 1.050092 1_555
H15 O11 1.494271 1_555
H16 O16 1.031579 1_555
H16 O24 1.585183 1_555
H16 Rb4 3.154731 1_555
H16 Rb2 3.428244 1_555
H17 O17 1.031579 1_555
H17 O25 1.585183 1_555
H17 Rb5 3.154731 1_565
H17 Rb3 3.428244 1_555
H18 O18 1.031579 1_555
H18 O26 1.585183 1_655
H18 Rb6 3.154731 1_645
H18 Rb0 3.428244 1_655
H19 O19 1.031579 1_555
H19 O27 1.585183 1_455
H19 Rb7 3.154731 1_455
H19 Rb1 3.428244 1_455
H20 O20 1.030623 1_555
H20 O28 1.588866 1_655
H20 Rb0 3.130945 1_655
H20 Rb6 3.418007 1_655
H21 O21 1.030623 1_555
H21 O29 1.588866 1_455
H21 Rb1 3.130945 1_445
H21 Rb7 3.418007 1_455
H22 O22 1.030623 1_555
H22 O30 1.588866 1_555
H22 Rb2 3.130945 1_565
H22 Rb4 3.418007 1_555
H23 O23 1.030623 1_555
H23 O31 1.588866 1_555
H23 Rb3 3.130945 1_555
H23 Rb5 3.418007 1_555
O0 Se0 1.891882 1_555
O0 Rb2 3.101530 1_555
O1 Se1 1.891882 1_555
O1 Rb3 3.101530 1_555
O2 Se2 1.891882 1_555
O2 Rb0 3.101530 1_555
O3 Se3 1.891882 1_555
O3 Rb1 3.101530 1_555
O4 Se4 1.886893 1_555
O4 Rb6 3.148529 1_555
O5 Se5 1.886893 1_555
O5 Rb7 3.148529 1_555
O6 Se6 1.886893 1_555
O6 Rb4 3.148529 1_555
O7 Se7 1.886893 1_555
O7 Rb5 3.148529 1_555
O8 Se8 1.704963 1_555
O8 Rb0 2.855649 1_555
O9 Se9 1.704963 1_555
O9 Rb1 2.855649 1_555
O10 Se10 1.704963 1_555
O10 Rb2 2.855649 1_555
O11 Se11 1.704963 1_555
O11 Rb3 2.855649 1_555
O12 Se12 1.705058 1_555
O12 Rb4 2.867212 1_555
O13 Se13 1.705058 1_555
O13 Rb5 2.867212 1_555
O14 Se14 1.705058 1_555
O14 Rb6 2.867212 1_555
O15 Se15 1.705058 1_555
O15 Rb7 2.867212 1_555
O16 Se0 1.806505 1_455
O16 Rb4 3.196725 1_555
O17 Se1 1.806505 1_655
O17 Rb5 3.196725 1_565
O18 Se2 1.806505 1_555
O18 Rb6 3.196725 1_645
O19 Se3 1.806505 1_555
O19 Rb7 3.196725 1_455
O20 Se4 1.807052 1_555
O20 Rb0 3.153493 1_655
O21 Se5 1.807052 1_555
O21 Rb1 3.153493 1_445
O22 Se6 1.807052 1_455
O22 Rb2 3.153493 1_565
O23 Se7 1.807052 1_655
O23 Rb3 3.153493 1_555
O24 Se8 1.711649 1_556
O24 Rb2 3.030625 1_555
O25 Se9 1.711649 1_555
O25 Rb3 3.030625 1_555
O26 Se10 1.711649 1_454
O26 Rb0 3.030625 1_555
O27 Se11 1.711649 1_655
O27 Rb1 3.030625 1_555
O28 Se12 1.711467 1_454
O28 Rb6 3.013675 1_555
O29 Se13 1.711467 1_655
O29 Rb7 3.013675 1_555
O30 Se14 1.711467 1_556
O30 Rb4 3.013675 1_555
O31 Se15 1.711467 1_555
O31 Rb5 3.013675 1_555
O32 Se0 1.634955 1_555
O32 Rb4 2.817414 1_555
O33 Se1 1.634955 1_555
O33 Rb5 2.817414 1_565
O34 Se2 1.634955 1_555
O34 Rb6 2.817414 1_545
O35 Se3 1.634955 1_555
O35 Rb7 2.817414 1_555
O36 Se4 1.636948 1_555
O36 Rb0 2.814709 1_555
O37 Se5 1.636948 1_555
O37 Rb1 2.814709 1_545
O38 Se6 1.636948 1_555
O38 Rb2 2.814709 1_565
O39 Se7 1.636948 1_555
O39 Rb3 2.814709 1_555
O40 Se8 1.801868 1_555
O40 Rb0 2.912955 1_655
O41 Se9 1.801868 1_555
O41 Rb1 2.912955 1_455
O42 Se10 1.801868 1_455
O42 Rb2 2.912955 1_555
O43 Se11 1.801868 1_655
O43 Rb3 2.912955 1_555
O44 Se12 1.802190 1_455
O44 Rb4 2.908441 1_555
O45 Se13 1.802190 1_655
O45 Rb5 2.908441 1_555
O46 Se14 1.802190 1_555
O46 Rb6 2.908441 1_655
O47 Se15 1.802190 1_555
O47 Rb7 2.908441 1_455
