# generated using pymatgen
data_UC4O7
_symmetry_space_group_name_H-M   'P 1'
_cell_length_a   5.89648800
_cell_length_b   11.19376400
_cell_length_c   11.21899600
_cell_angle_alpha   90.00000000
_cell_angle_beta   90.00000000
_cell_angle_gamma   90.00000000
_symmetry_Int_Tables_number   1
_chemical_formula_structural   UC4O7
_chemical_formula_sum   'U4 C16 O28'
_cell_volume   740.49743512
_cell_formula_units_Z   4
loop_
 _symmetry_equiv_pos_site_id
 _symmetry_equiv_pos_as_xyz
  1  'x, y, z'
loop_
 _atom_site_type_symbol
 _atom_site_label
 _atom_site_symmetry_multiplicity
 _atom_site_fract_x
 _atom_site_fract_y
 _atom_site_fract_z
 _atom_site_occupancy
  U  U0  1  0.00000000  0.25000000  0.83351000  1
  U  U1  1  0.50000000  0.75000000  0.66649000  1
  U  U2  1  0.00000000  0.75000000  0.16649000  1
  U  U3  1  0.50000000  0.25000000  0.33351000  1
  C  C0  1  0.05078300  0.43661700  0.56563800  1
  C  C1  1  0.44921700  0.93661700  0.93436200  1
  C  C2  1  0.55078300  0.56338300  0.93436200  1
  C  C3  1  0.94921700  0.06338300  0.56563800  1
  C  C4  1  0.94921700  0.56338300  0.43436200  1
  C  C5  1  0.55078300  0.06338300  0.06563800  1
  C  C6  1  0.44921700  0.43661700  0.06563800  1
  C  C7  1  0.05078300  0.93661700  0.43436200  1
  C  C8  1  0.86513300  0.52829000  0.55603400  1
  C  C9  1  0.63486700  0.02829000  0.94396600  1
  C  C10  1  0.36513300  0.47171000  0.94396600  1
  C  C11  1  0.13486700  0.97171000  0.55603400  1
  C  C12  1  0.13486700  0.47171000  0.44396600  1
  C  C13  1  0.36513300  0.97171000  0.05603400  1
  C  C14  1  0.63486700  0.52829000  0.05603400  1
  C  C15  1  0.86513300  0.02829000  0.44396600  1
  O  O0  1  0.00000000  0.25000000  0.00415300  1
  O  O1  1  0.50000000  0.75000000  0.49584700  1
  O  O2  1  0.00000000  0.75000000  0.99584700  1
  O  O3  1  0.50000000  0.25000000  0.50415300  1
  O  O4  1  0.26684300  0.16747200  0.82024700  1
  O  O5  1  0.23315700  0.66747200  0.67975300  1
  O  O6  1  0.76684300  0.83252800  0.67975300  1
  O  O7  1  0.73315700  0.33252800  0.82024700  1
  O  O8  1  0.73315700  0.83252800  0.17975300  1
  O  O9  1  0.76684300  0.33252800  0.32024700  1
  O  O10  1  0.23315700  0.16747200  0.32024700  1
  O  O11  1  0.26684300  0.66747200  0.17975300  1
  O  O12  1  0.11168100  0.36283500  0.63955800  1
  O  O13  1  0.38831900  0.86283500  0.86044200  1
  O  O14  1  0.61168100  0.63716500  0.86044200  1
  O  O15  1  0.88831900  0.13716500  0.63955800  1
  O  O16  1  0.88831900  0.63716500  0.36044200  1
  O  O17  1  0.61168100  0.13716500  0.13955800  1
  O  O18  1  0.38831900  0.36283500  0.13955800  1
  O  O19  1  0.11168100  0.86283500  0.36044200  1
  O  O20  1  0.70942400  0.56021900  0.62108900  1
  O  O21  1  0.79057600  0.06021900  0.87891100  1
  O  O22  1  0.20942400  0.43978100  0.87891100  1
  O  O23  1  0.29057600  0.93978100  0.62108900  1
  O  O24  1  0.29057600  0.43978100  0.37891100  1
  O  O25  1  0.20942400  0.93978100  0.12108900  1
  O  O26  1  0.79057600  0.56021900  0.12108900  1
  O  O27  1  0.70942400  0.06021900  0.37891100  1
loop_
_geom_bond_atom_site_label_1
_geom_bond_atom_site_label_2
_geom_bond_distance
_geom_bond_site_symmetry_2
C0 O12 1.224256 1_555
C0 C8 1.504313 1_455
C0 C12 1.504478 1_555
C1 O13 1.224256 1_555
C1 C9 1.504313 1_565
C1 C13 1.504478 1_556
C2 O14 1.224256 1_555
C3 O15 1.224256 1_555
C4 O16 1.224256 1_555
C4 C8 1.504478 1_555
C5 O17 1.224256 1_555
C5 C9 1.504478 1_554
C6 O18 1.224256 1_555
C7 O19 1.224256 1_555
C8 O20 1.226131 1_555
C9 O21 1.226131 1_555
C10 O22 1.226131 1_555
C10 C2 1.504313 1_555
C10 C6 1.504478 1_556
C11 O23 1.226131 1_555
C11 C3 1.504313 1_465
C11 C7 1.504478 1_555
C12 O24 1.226131 1_555
C12 C4 1.504313 1_455
C13 O25 1.226131 1_555
C13 C5 1.504313 1_565
C14 O26 1.226131 1_555
C14 C6 1.504313 1_555
C14 C2 1.504478 1_554
C15 O27 1.226131 1_555
C15 C7 1.504313 1_645
C15 C3 1.504478 1_555
O0 U0 1.914443 1_554
O1 U1 1.914443 1_555
O2 U2 1.914443 1_556
O3 U3 1.914443 1_555
O4 U0 1.830641 1_555
O5 U1 1.830641 1_555
O6 U1 1.830641 1_555
O7 U0 1.830641 1_655
O8 U2 1.830641 1_655
O9 U3 1.830641 1_555
O10 U3 1.830641 1_555
O11 U2 1.830641 1_555
O20 U1 2.509434 1_555
O21 U0 2.509434 1_655
O22 U0 2.509434 1_555
O23 U1 2.509434 1_555
O24 U3 2.509434 1_555
O25 U2 2.509434 1_555
O26 U2 2.509434 1_655
O27 U3 2.509434 1_555
