# generated using pymatgen
data_BaYI5
_symmetry_space_group_name_H-M   'P 1'
_cell_length_a   8.62070267
_cell_length_b   8.62070267
_cell_length_c   11.89193991
_cell_angle_alpha   69.63154918
_cell_angle_beta   69.63154918
_cell_angle_gamma   70.37820994
_symmetry_Int_Tables_number   1
_chemical_formula_structural   BaYI5
_chemical_formula_sum   'Ba2 Y2 I10'
_cell_volume   753.17938736
_cell_formula_units_Z   2
loop_
 _symmetry_equiv_pos_site_id
 _symmetry_equiv_pos_as_xyz
  1  'x, y, z'
loop_
 _atom_site_type_symbol
 _atom_site_label
 _atom_site_symmetry_multiplicity
 _atom_site_fract_x
 _atom_site_fract_y
 _atom_site_fract_z
 _atom_site_occupancy
  Ba  Ba0  1  0.55871700  0.44128300  0.25000000  1
  Ba  Ba1  1  0.44128300  0.55871700  0.75000000  1
  Y  Y0  1  0.00000000  0.00000000  0.00000000  1
  Y  Y1  1  0.00000000  0.00000000  0.50000000  1
  I  I0  1  0.78761000  0.74592500  0.12173100  1
  I  I1  1  0.28946100  0.68316600  0.47049500  1
  I  I2  1  0.74592500  0.78761000  0.62173100  1
  I  I3  1  0.92083500  0.07916500  0.25000000  1
  I  I4  1  0.31683400  0.71053900  0.02950500  1
  I  I5  1  0.68316600  0.28946100  0.97049500  1
  I  I6  1  0.07916500  0.92083500  0.75000000  1
  I  I7  1  0.25407500  0.21239000  0.37826900  1
  I  I8  1  0.71053900  0.31683400  0.52950500  1
  I  I9  1  0.21239000  0.25407500  0.87826900  1
loop_
_geom_bond_atom_site_label_1
_geom_bond_atom_site_label_2
_geom_bond_distance
_geom_bond_site_symmetry_2
Ba0 I0 3.422574 1_555
Ba0 I7 3.422574 1_555
Ba0 I1 3.595826 1_555
Ba0 I4 3.595826 1_555
Ba0 I3 3.597941 1_555
Ba0 I8 3.676267 1_555
Ba0 I5 3.676267 1_554
Ba1 I2 3.422574 1_555
Ba1 I9 3.422574 1_555
Ba1 I5 3.595826 1_555
Ba1 I8 3.595826 1_555
Ba1 I6 3.597941 1_555
Ba1 I4 3.676267 1_556
Ba1 I1 3.676267 1_555
I0 Y0 2.981041 1_665
I0 I4 4.233840 1_655
I0 I6 4.278264 1_654
I0 I3 4.287695 1_565
I0 I5 4.292810 1_564
I1 Y1 3.047984 1_565
I1 I8 4.021667 1_555
I1 I6 4.072326 1_555
I1 I7 4.233840 1_565
I1 I2 4.292810 1_455
I2 Y1 2.981041 1_665
I2 I8 4.233840 1_565
I2 I3 4.278264 1_565
I2 I6 4.287695 1_655
I3 Y0 3.075277 1_655
I3 Y1 3.075277 1_655
I3 I8 4.072326 1_555
I3 I5 4.072326 1_554
I3 I9 4.278264 1_654
I3 I7 4.287695 1_655
I4 Y0 3.047984 1_565
I4 I5 4.021667 1_554
I4 I6 4.072326 1_554
I4 I9 4.292810 1_564
I5 Y0 3.047984 1_656
I5 I9 4.233840 1_655
I6 Y1 3.075277 1_565
I6 Y0 3.075277 1_566
I6 I7 4.278264 1_565
I6 I9 4.287695 1_565
I7 Y1 2.981041 1_555
I7 I8 4.292810 1_455
I8 Y1 3.047984 1_655
I9 Y0 2.981041 1_556
