# generated using pymatgen
data_Na5Cr2P(CO4)4
_symmetry_space_group_name_H-M   'P 1'
_cell_length_a   9.87242040
_cell_length_b   9.87242040
_cell_length_c   9.75869341
_cell_angle_alpha   60.45798187
_cell_angle_beta   60.45798187
_cell_angle_gamma   90.80186039
_symmetry_Int_Tables_number   1
_chemical_formula_structural   Na5Cr2P(CO4)4
_chemical_formula_sum   'Na10 Cr4 P2 C8 O32'
_cell_volume   677.09355790
_cell_formula_units_Z   2
loop_
 _symmetry_equiv_pos_site_id
 _symmetry_equiv_pos_as_xyz
  1  'x, y, z'
loop_
 _atom_site_type_symbol
 _atom_site_label
 _atom_site_symmetry_multiplicity
 _atom_site_fract_x
 _atom_site_fract_y
 _atom_site_fract_z
 _atom_site_occupancy
  Na  Na0  1  0.08261900  0.33772900  0.34301000  1
  Na  Na1  1  0.33747000  0.08274200  0.23669900  1
  Na  Na2  1  0.33772900  0.08261900  0.84301000  1
  Na  Na3  1  0.07617900  0.92382100  0.75000000  1
  Na  Na4  1  0.08274200  0.33747000  0.73669900  1
  Na  Na5  1  0.92382100  0.07617900  0.25000000  1
  Na  Na6  1  0.91725800  0.66253000  0.26330100  1
  Na  Na7  1  0.66227100  0.91738100  0.15699000  1
  Na  Na8  1  0.66253000  0.91725800  0.76330100  1
  Na  Na9  1  0.91738100  0.66227100  0.65699000  1
  Cr  Cr0  1  0.50000000  0.00000000  0.50000000  1
  Cr  Cr1  1  0.50000000  0.50000000  0.00000000  1
  Cr  Cr2  1  0.50000000  0.50000000  0.50000000  1
  Cr  Cr3  1  0.00000000  0.50000000  0.00000000  1
  P  P0  1  0.87247100  0.12752900  0.75000000  1
  P  P1  1  0.12752900  0.87247100  0.25000000  1
  C  C0  1  0.28857400  0.71291300  0.92551800  1
  C  C1  1  0.28455400  0.36121200  0.92689200  1
  C  C2  1  0.63878800  0.71544600  0.57310800  1
  C  C3  1  0.28708700  0.71142600  0.57448200  1
  C  C4  1  0.36121200  0.28455400  0.42689200  1
  C  C5  1  0.71291300  0.28857400  0.42551800  1
  C  C6  1  0.71544600  0.63878800  0.07310800  1
  C  C7  1  0.71142600  0.28708700  0.07448200  1
  O  O0  1  0.35641400  0.13947700  0.45709300  1
  O  O1  1  0.30874900  0.35826100  0.04758600  1
  O  O2  1  0.14319200  0.59825800  0.04570200  1
  O  O3  1  0.59343800  0.31295300  0.05473600  1
  O  O4  1  0.13947700  0.35641400  0.95709300  1
  O  O5  1  0.68135200  0.05653800  0.88139600  1
  O  O6  1  0.93894600  0.06186300  0.88023100  1
  O  O7  1  0.39851000  0.35986300  0.78580700  1
  O  O8  1  0.31158000  0.85788800  0.78680600  1
  O  O9  1  0.64013700  0.60149000  0.71419300  1
  O  O10  1  0.14211200  0.68842000  0.71319400  1
  O  O11  1  0.93813700  0.06105400  0.61976900  1
  O  O12  1  0.94346200  0.31864800  0.61860400  1
  O  O13  1  0.35826100  0.30874900  0.54758600  1
  O  O14  1  0.59825800  0.14319200  0.54570200  1
  O  O15  1  0.31295300  0.59343800  0.55473600  1
  O  O16  1  0.68704700  0.40656200  0.44526400  1
  O  O17  1  0.40174200  0.85680800  0.45429800  1
  O  O18  1  0.64173900  0.69125100  0.45241400  1
  O  O19  1  0.06186300  0.93894600  0.38023100  1
  O  O20  1  0.05653800  0.68135200  0.38139600  1
  O  O21  1  0.85788800  0.31158000  0.28680600  1
  O  O22  1  0.35986300  0.39851000  0.28580700  1
  O  O23  1  0.68842000  0.14211200  0.21319400  1
  O  O24  1  0.60149000  0.64013700  0.21419300  1
  O  O25  1  0.06105400  0.93813700  0.11976900  1
  O  O26  1  0.31864800  0.94346200  0.11860400  1
  O  O27  1  0.86052300  0.64358600  0.04290700  1
  O  O28  1  0.40656200  0.68704700  0.94526400  1
  O  O29  1  0.69125100  0.64173900  0.95241400  1
  O  O30  1  0.85680800  0.40174200  0.95429800  1
  O  O31  1  0.64358600  0.86052300  0.54290700  1
loop_
_geom_bond_atom_site_label_1
_geom_bond_atom_site_label_2
_geom_bond_distance
_geom_bond_site_symmetry_2
Na0 O12 2.237313 1_455
Na0 O11 2.367916 1_455
Na0 O2 2.505593 1_555
Na0 O22 2.506041 1_555
Na0 O1 2.529954 1_555
Na0 O21 2.571656 1_455
Na1 O26 2.240553 1_545
Na1 O19 2.356557 1_545
Na1 O3 2.477672 1_555
Na1 O1 2.544074 1_555
Na1 O0 2.560495 1_555
Na1 O17 2.566041 1_545
Na2 O26 2.237313 1_546
Na2 O25 2.367916 1_546
Na2 O14 2.505593 1_555
Na2 O7 2.506041 1_555
Na2 O13 2.529954 1_555
Na2 O8 2.571656 1_545
Na3 O6 2.317245 1_465
Na3 O11 2.317245 1_465
Na3 O0 2.528430 1_565
Na3 O27 2.528430 1_456
Na3 O10 2.566808 1_555
Na3 O8 2.566808 1_555
Na4 O12 2.240553 1_455
Na4 O6 2.356557 1_455
Na4 O15 2.477672 1_555
Na4 O13 2.544074 1_555
Na4 O4 2.560495 1_555
Na4 O30 2.566041 1_455
Na5 O19 2.317245 1_645
Na5 O25 2.317245 1_645
Na5 O4 2.528430 1_654
Na5 O31 2.528430 1_545
Na5 O23 2.566808 1_555
Na5 O21 2.566808 1_555
Na6 O20 2.240553 1_655
Na6 O25 2.356557 1_655
Na6 O16 2.477672 1_555
Na6 O18 2.544074 1_555
Na6 O27 2.560495 1_555
Na6 O2 2.566041 1_655
Na7 O5 2.237313 1_564
Na7 O6 2.367916 1_564
Na7 O17 2.505593 1_555
Na7 O24 2.506041 1_555
Na7 O18 2.529954 1_555
Na7 O23 2.571656 1_565
Na8 O5 2.240553 1_565
Na8 O11 2.356557 1_565
Na8 O28 2.477672 1_555
Na8 O29 2.544074 1_555
Na8 O31 2.560495 1_555
Na8 O14 2.566041 1_565
Na9 O20 2.237313 1_655
Na9 O19 2.367916 1_655
Na9 O30 2.505593 1_555
Na9 O9 2.506041 1_555
Na9 O29 2.529954 1_555
Na9 O10 2.571656 1_655
Cr0 O14 2.036733 1_555
Cr0 O17 2.036733 1_545
Cr0 O0 2.037693 1_555
Cr0 O31 2.037693 1_545
Cr0 O8 2.045181 1_545
Cr0 O23 2.045181 1_555
Cr1 O22 2.024186 1_555
Cr1 O9 2.024186 1_554
Cr1 O28 2.026598 1_554
Cr1 O3 2.026598 1_555
Cr1 O29 2.039436 1_554
Cr1 O1 2.039436 1_555
Cr2 O7 2.024186 1_555
Cr2 O24 2.024186 1_555
Cr2 O16 2.026598 1_555
Cr2 O15 2.026598 1_555
Cr2 O18 2.039436 1_555
Cr2 O13 2.039436 1_555
Cr3 O2 2.036733 1_555
Cr3 O30 2.036733 1_454
Cr3 O4 2.037693 1_554
Cr3 O27 2.037693 1_455
Cr3 O10 2.045181 1_554
Cr3 O21 2.045181 1_455
C0 O28 1.280744 1_555
C0 O2 1.304687 1_556
C0 O8 1.307527 1_555
C1 O7 1.285497 1_555
C1 O1 1.299594 1_556
C1 O4 1.307115 1_555
C2 O9 1.285497 1_555
C2 O18 1.299594 1_555
C2 O31 1.307115 1_555
C3 O15 1.280744 1_555
C3 O17 1.304687 1_555
C3 O10 1.307527 1_555
C4 O22 1.285497 1_555
C4 O13 1.299594 1_555
C4 O0 1.307115 1_555
C5 O16 1.280744 1_555
C5 O14 1.304687 1_555
C5 O21 1.307527 1_555
C6 O24 1.285497 1_555
C6 O29 1.299594 1_554
C6 O27 1.307115 1_555
C7 O3 1.280744 1_555
C7 O30 1.304687 1_554
C7 O23 1.307527 1_555
O5 P0 1.544799 1_555
O6 P0 1.577347 1_555
O11 P0 1.577347 1_555
O12 P0 1.544799 1_555
O19 P1 1.577347 1_555
O20 P1 1.544799 1_555
O25 P1 1.577347 1_555
O26 P1 1.544799 1_555
