# generated using pymatgen
data_PrMgGa
_symmetry_space_group_name_H-M   'P 1'
_cell_length_a   7.49289121
_cell_length_b   7.49289282
_cell_length_c   4.56348671
_cell_angle_alpha   90.00000000
_cell_angle_beta   90.00000000
_cell_angle_gamma   120.00000203
_symmetry_Int_Tables_number   1
_chemical_formula_structural   PrMgGa
_chemical_formula_sum   'Pr3 Mg3 Ga3'
_cell_volume   221.88419095
_cell_formula_units_Z   3
loop_
 _symmetry_equiv_pos_site_id
 _symmetry_equiv_pos_as_xyz
  1  'x, y, z'
loop_
 _atom_site_type_symbol
 _atom_site_label
 _atom_site_symmetry_multiplicity
 _atom_site_fract_x
 _atom_site_fract_y
 _atom_site_fract_z
 _atom_site_occupancy
  Pr  Pr0  1  0.00000000  0.42185804  0.00000000  1
  Pr  Pr1  1  0.57814196  0.57814196  0.00000000  1
  Pr  Pr2  1  0.42185804  1.00000000  0.00000000  1
  Mg  Mg0  1  0.00000000  0.75756014  0.50000000  1
  Mg  Mg1  1  0.24243986  0.24243986  0.50000000  1
  Mg  Mg2  1  0.75756014  1.00000000  0.50000000  1
  Ga  Ga0  1  0.33333300  0.66666700  0.50000000  1
  Ga  Ga1  1  0.66666700  0.33333300  0.50000000  1
  Ga  Ga2  1  -0.00000000  0.00000000  0.00000000  1
loop_
_geom_bond_atom_site_label_1
_geom_bond_atom_site_label_2
_geom_bond_distance
_geom_bond_site_symmetry_2
Pr0 Pr1 3.881278 1_555
Pr0 Pr2 3.881278 1_445
Pr0 Pr1 3.881278 1_455
Pr0 Pr2 3.881278 1_555
Pr1 Pr2 3.881279 1_555
Pr1 Pr2 3.881279 1_545
Mg0 Mg2 3.146401 1_455
Mg0 Mg1 3.146402 1_565
Mg0 Pr0 3.396099 1_555
Mg0 Pr0 3.396099 1_556
Mg0 Pr1 3.571518 1_455
Mg0 Pr1 3.571518 1_456
Mg0 Pr2 3.571518 1_556
Mg0 Pr2 3.571518 1_555
Mg1 Mg2 3.146401 1_445
Mg1 Pr1 3.396099 1_556
Mg1 Pr1 3.396099 1_555
Mg1 Pr0 3.571518 1_556
Mg1 Pr0 3.571518 1_555
Mg1 Pr2 3.571518 1_546
Mg1 Pr2 3.571518 1_545
Mg2 Pr2 3.396099 1_556
Mg2 Pr2 3.396099 1_555
Mg2 Pr0 3.571518 1_666
Mg2 Pr0 3.571518 1_665
Mg2 Pr1 3.571518 1_556
Mg2 Pr1 3.571518 1_555
Ga0 Mg0 2.898792 1_555
Ga0 Mg2 2.898797 1_555
Ga0 Mg1 2.898800 1_555
Ga0 Pr2 3.198090 1_556
Ga0 Pr2 3.198090 1_555
Ga0 Pr0 3.198091 1_556
Ga0 Pr0 3.198091 1_555
Ga0 Pr1 3.198095 1_555
Ga0 Pr1 3.198095 1_556
Ga1 Mg2 2.898792 1_545
Ga1 Mg0 2.898797 1_655
Ga1 Mg1 2.898799 1_555
Ga1 Pr0 3.198090 1_656
Ga1 Pr0 3.198090 1_655
Ga1 Pr2 3.198091 1_546
Ga1 Pr2 3.198091 1_545
Ga1 Pr1 3.198095 1_555
Ga1 Pr1 3.198095 1_556
Ga2 Mg2 2.916556 1_445
Ga2 Mg2 2.916556 1_444
Ga2 Mg1 2.916556 1_554
Ga2 Mg1 2.916556 1_555
Ga2 Mg0 2.916556 1_545
Ga2 Mg0 2.916556 1_544
Ga2 Pr2 3.160936 1_545
Ga2 Pr1 3.160937 1_445
Ga2 Pr0 3.160937 1_555
