# generated using pymatgen
data_Ca7Cu17O24
_symmetry_space_group_name_H-M   'P 1'
_cell_length_a   3.64064800
_cell_length_b   9.89690100
_cell_length_c   16.43700400
_cell_angle_alpha   90.00000000
_cell_angle_beta   90.00000000
_cell_angle_gamma   90.00000000
_symmetry_Int_Tables_number   1
_chemical_formula_structural   Ca7Cu17O24
_chemical_formula_sum   'Ca7 Cu17 O24'
_cell_volume   592.24387448
_cell_formula_units_Z   1
loop_
 _symmetry_equiv_pos_site_id
 _symmetry_equiv_pos_as_xyz
  1  'x, y, z'
loop_
 _atom_site_type_symbol
 _atom_site_label
 _atom_site_symmetry_multiplicity
 _atom_site_fract_x
 _atom_site_fract_y
 _atom_site_fract_z
 _atom_site_occupancy
  Ca  Ca0  1  0.35096000  0.00000000  0.62475700  1
  Ca  Ca1  1  0.35903800  0.00000000  0.87373800  1
  Ca  Ca2  1  0.35903800  0.00000000  0.12626200  1
  Ca  Ca3  1  0.35096000  0.00000000  0.37524300  1
  Ca  Ca4  1  0.63244700  0.50000000  0.74697800  1
  Ca  Ca5  1  0.64581300  0.50000000  0.00000000  1
  Ca  Ca6  1  0.63244700  0.50000000  0.25302200  1
  Cu  Cu0  1  0.85766500  0.83231500  0.25185500  1
  Cu  Cu1  1  0.84243400  0.83241600  0.50000000  1
  Cu  Cu2  1  0.85707500  0.83487500  0.00000000  1
  Cu  Cu3  1  0.85766500  0.83231500  0.74814500  1
  Cu  Cu4  1  0.85766500  0.16768500  0.74814500  1
  Cu  Cu5  1  0.85707500  0.16512500  0.00000000  1
  Cu  Cu6  1  0.85766500  0.16768500  0.25185500  1
  Cu  Cu7  1  0.84243400  0.16758400  0.50000000  1
  Cu  Cu8  1  0.14570500  0.33978400  0.62082000  1
  Cu  Cu9  1  0.14659400  0.33580100  0.87383800  1
  Cu  Cu10  1  0.14659400  0.33580100  0.12616200  1
  Cu  Cu11  1  0.14570500  0.33978400  0.37918000  1
  Cu  Cu12  1  0.53866100  0.50000000  0.50000000  1
  Cu  Cu13  1  0.14570500  0.66021600  0.62082000  1
  Cu  Cu14  1  0.14659400  0.66419900  0.87383800  1
  Cu  Cu15  1  0.14659400  0.66419900  0.12616200  1
  Cu  Cu16  1  0.14570500  0.66021600  0.37918000  1
  O  O0  1  0.88834100  0.83094300  0.12585200  1
  O  O1  1  0.88622700  0.82872700  0.37803600  1
  O  O2  1  0.88834100  0.83094300  0.87414800  1
  O  O3  1  0.88622700  0.82872700  0.62196400  1
  O  O4  1  0.61137200  0.00000000  0.74862000  1
  O  O5  1  0.59991700  0.00000000  0.00000000  1
  O  O6  1  0.59448900  0.00000000  0.50000000  1
  O  O7  1  0.61137200  0.00000000  0.25138000  1
  O  O8  1  0.88834100  0.16905700  0.87414800  1
  O  O9  1  0.88622700  0.17127300  0.62196400  1
  O  O10  1  0.88834100  0.16905700  0.12585200  1
  O  O11  1  0.88622700  0.17127300  0.37803600  1
  O  O12  1  0.11403600  0.33696800  0.74545800  1
  O  O13  1  0.11607400  0.33216400  0.00000000  1
  O  O14  1  0.11403600  0.33696800  0.25454200  1
  O  O15  1  0.08591700  0.33507500  0.50000000  1
  O  O16  1  0.43607900  0.50000000  0.61399700  1
  O  O17  1  0.40666900  0.50000000  0.87450800  1
  O  O18  1  0.40666900  0.50000000  0.12549200  1
  O  O19  1  0.43607900  0.50000000  0.38600300  1
  O  O20  1  0.11403600  0.66303200  0.74545800  1
  O  O21  1  0.11607400  0.66783600  0.00000000  1
  O  O22  1  0.11403600  0.66303200  0.25454200  1
  O  O23  1  0.08591700  0.66492500  0.50000000  1
loop_
_geom_bond_atom_site_label_1
_geom_bond_atom_site_label_2
_geom_bond_distance
_geom_bond_site_symmetry_2
Ca0 O6 2.234089 1_555
Ca0 O4 2.245857 1_555
Ca0 O9 2.395413 1_455
Ca0 O3 2.395413 1_445
Ca0 O9 2.583192 1_555
Ca0 O3 2.583192 1_545
Ca1 O4 2.252420 1_555
Ca1 O5 2.253044 1_556
Ca1 O8 2.394998 1_455
Ca1 O2 2.394998 1_445
Ca1 O8 2.552018 1_555
Ca1 O2 2.552018 1_545
Ca2 O7 2.252420 1_555
Ca2 O5 2.253044 1_555
Ca2 O10 2.394998 1_455
Ca2 O0 2.394998 1_445
Ca2 O10 2.552018 1_555
Ca2 O0 2.552018 1_545
Ca3 O6 2.234089 1_555
Ca3 O7 2.245857 1_555
Ca3 O11 2.395413 1_455
Ca3 O1 2.395413 1_445
Ca3 O11 2.583192 1_555
Ca3 O1 2.583192 1_545
Ca4 O17 2.251610 1_555
Ca4 O16 2.299751 1_555
Ca4 O20 2.382874 1_655
Ca4 O12 2.382874 1_655
Ca4 O20 2.483172 1_555
Ca4 O12 2.483172 1_555
Ca5 O18 2.238927 1_555
Ca5 O17 2.238927 1_554
Ca5 O21 2.385422 1_655
Ca5 O13 2.385422 1_655
Ca5 O21 2.545305 1_555
Ca5 O13 2.545305 1_555
Ca6 O18 2.251610 1_555
Ca6 O19 2.299751 1_555
Ca6 O14 2.382874 1_655
Ca6 O22 2.382874 1_655
Ca6 O22 2.483172 1_555
Ca6 O14 2.483172 1_555
Cu0 O7 1.886324 1_565
Cu0 O22 1.918331 1_655
Cu0 O0 2.074165 1_555
Cu0 O1 2.076946 1_555
Cu1 O23 1.879773 1_655
Cu1 O6 1.888296 1_565
Cu1 O3 2.011384 1_555
Cu1 O1 2.011384 1_555
Cu2 O5 1.883403 1_565
Cu2 O21 1.903174 1_655
Cu2 O0 2.072125 1_555
Cu2 O2 2.072125 1_554
Cu3 O4 1.886324 1_565
Cu3 O20 1.918331 1_655
Cu3 O2 2.074165 1_555
Cu3 O3 2.076946 1_555
Cu4 O4 1.886324 1_555
Cu4 O12 1.918331 1_655
Cu4 O8 2.074165 1_555
Cu4 O9 2.076946 1_555
Cu5 O5 1.883403 1_555
Cu5 O13 1.903174 1_655
Cu5 O10 2.072125 1_555
Cu5 O8 2.072125 1_554
Cu6 O7 1.886324 1_555
Cu6 O14 1.918331 1_655
Cu6 O10 2.074165 1_555
Cu6 O11 2.076946 1_555
Cu7 O15 1.879773 1_655
Cu7 O6 1.888296 1_555
Cu7 O9 2.011384 1_555
Cu7 O11 2.011384 1_555
Cu8 O16 1.909032 1_555
Cu8 O9 1.916793 1_455
Cu8 O15 1.998355 1_555
Cu8 O12 2.052106 1_555
Cu9 O17 1.880812 1_555
Cu9 O8 1.899300 1_455
Cu9 O13 2.077012 1_556
Cu9 O12 2.113541 1_555
Cu10 O18 1.880812 1_555
Cu10 O10 1.899300 1_455
Cu10 O13 2.077012 1_555
Cu10 O14 2.113541 1_555
Cu11 O19 1.909032 1_555
Cu11 O11 1.916793 1_455
Cu11 O15 1.998355 1_555
Cu11 O14 2.052106 1_555
Cu12 O16 1.910625 1_555
Cu12 O19 1.910625 1_555
Cu12 O23 2.319711 1_555
Cu12 O15 2.319711 1_555
Cu12 O23 2.575607 1_655
Cu12 O15 2.575607 1_655
Cu13 O16 1.909032 1_555
Cu13 O3 1.916793 1_455
Cu13 O23 1.998355 1_555
Cu13 O20 2.052106 1_555
Cu14 O17 1.880812 1_555
Cu14 O2 1.899300 1_455
Cu14 O21 2.077012 1_556
Cu14 O20 2.113541 1_555
Cu15 O18 1.880812 1_555
Cu15 O0 1.899300 1_455
Cu15 O21 2.077012 1_555
Cu15 O22 2.113541 1_555
Cu16 O19 1.909032 1_555
Cu16 O1 1.916793 1_455
Cu16 O23 1.998355 1_555
Cu16 O22 2.052106 1_555
