# generated using pymatgen
data_Pr3GaO6
_symmetry_space_group_name_H-M   'P 1'
_cell_length_a   7.45538027
_cell_length_b   7.45538027
_cell_length_c   5.64510467
_cell_angle_alpha   90.00000000
_cell_angle_beta   90.00000000
_cell_angle_gamma   77.18584239
_symmetry_Int_Tables_number   1
_chemical_formula_structural   Pr3GaO6
_chemical_formula_sum   'Pr6 Ga2 O12'
_cell_volume   305.95555402
_cell_formula_units_Z   2
loop_
 _symmetry_equiv_pos_site_id
 _symmetry_equiv_pos_as_xyz
  1  'x, y, z'
loop_
 _atom_site_type_symbol
 _atom_site_label
 _atom_site_symmetry_multiplicity
 _atom_site_fract_x
 _atom_site_fract_y
 _atom_site_fract_z
 _atom_site_occupancy
  Pr  Pr0  1  0.29914901  0.91367637  0.47337638  1
  Pr  Pr1  1  0.08632363  0.70085099  0.97337638  1
  Pr  Pr2  1  0.39563260  0.39563260  0.43015883  1
  Pr  Pr3  1  0.60436740  0.60436740  0.93015883  1
  Pr  Pr4  1  0.91367637  0.29914901  0.47337638  1
  Pr  Pr5  1  0.70085099  0.08632363  0.97337638  1
  Ga  Ga0  1  0.19169274  0.19169274  0.00822471  1
  Ga  Ga1  1  0.80830726  0.80830726  0.50822471  1
  O  O0  1  0.35349656  0.67208956  0.20356282  1
  O  O1  1  0.32791044  0.64650344  0.70356282  1
  O  O2  1  0.10671829  0.41324515  0.17300173  1
  O  O3  1  0.58675485  0.89328171  0.67300173  1
  O  O4  1  0.04270657  0.04270657  0.13640375  1
  O  O5  1  0.21503294  0.21503294  0.68412985  1
  O  O6  1  0.95729343  0.95729343  0.63640375  1
  O  O7  1  0.78496706  0.78496706  0.18412985  1
  O  O8  1  0.41324515  0.10671829  0.17300173  1
  O  O9  1  0.89328171  0.58675485  0.67300173  1
  O  O10  1  0.67208956  0.35349656  0.20356282  1
  O  O11  1  0.64650344  0.32791044  0.70356282  1
loop_
_geom_bond_atom_site_label_1
_geom_bond_atom_site_label_2
_geom_bond_distance
_geom_bond_site_symmetry_2
Ga0 O5 1.849660 1_554
Ga0 O2 1.879021 1_555
Ga0 O8 1.879021 1_555
Ga0 O4 1.881055 1_555
Ga1 O7 1.849660 1_555
Ga1 O9 1.879021 1_555
Ga1 O3 1.879021 1_555
Ga1 O6 1.881055 1_555
O0 Pr0 2.324738 1_555
O0 Pr1 2.347893 1_554
O0 Pr2 2.386593 1_555
O0 Pr3 2.390871 1_554
O0 O1 2.838259 1_555
O0 O1 2.838259 1_554
O0 O2 2.951897 1_555
O0 O10 2.963259 1_555
O1 Pr1 2.324738 1_555
O1 Pr0 2.347893 1_555
O1 Pr3 2.386593 1_555
O1 Pr2 2.390871 1_555
O1 O3 2.951897 1_555
O1 O11 2.963259 1_555
O2 Pr1 2.397094 1_554
O2 Pr4 2.492615 1_455
O2 Pr2 2.576572 1_555
O3 Pr0 2.397094 1_555
O3 Pr5 2.492615 1_565
O3 Pr3 2.576572 1_555
O4 Pr5 2.660970 1_454
O4 Pr1 2.660970 1_544
O4 Pr0 2.717237 1_545
O4 Pr4 2.717237 1_455
O5 Pr0 2.496302 1_545
O5 Pr4 2.496302 1_455
O5 Pr2 2.546652 1_555
O6 Pr0 2.660970 1_655
O6 Pr4 2.660970 1_565
O6 Pr5 2.717237 1_565
O6 Pr1 2.717237 1_655
O7 Pr5 2.496302 1_564
O7 Pr1 2.496302 1_654
O7 Pr3 2.546652 1_554
O8 Pr5 2.397094 1_554
O8 Pr0 2.492615 1_545
O8 Pr2 2.576572 1_555
O9 Pr4 2.397094 1_555
O9 Pr1 2.492615 1_655
O9 Pr3 2.576572 1_555
O10 Pr4 2.324738 1_555
O10 Pr5 2.347893 1_554
O10 Pr2 2.386593 1_555
O10 Pr3 2.390871 1_554
O10 O11 2.838259 1_554
O10 O11 2.838259 1_555
O10 O8 2.951897 1_555
O11 Pr5 2.324738 1_555
O11 Pr4 2.347893 1_555
O11 Pr3 2.386593 1_555
O11 Pr2 2.390871 1_555
O11 O9 2.951897 1_555
