# generated using pymatgen
data_Nb3N5
_symmetry_space_group_name_H-M   'P 1'
_cell_length_a   3.89927146
_cell_length_b   5.55321496
_cell_length_c   10.39362921
_cell_angle_alpha   90.00000071
_cell_angle_beta   89.99999989
_cell_angle_gamma   110.56349089
_symmetry_Int_Tables_number   1
_chemical_formula_structural   Nb3N5
_chemical_formula_sum   'Nb6 N10'
_cell_volume   210.71845065
_cell_formula_units_Z   2
loop_
 _symmetry_equiv_pos_site_id
 _symmetry_equiv_pos_as_xyz
  1  'x, y, z'
loop_
 _atom_site_type_symbol
 _atom_site_label
 _atom_site_symmetry_multiplicity
 _atom_site_fract_x
 _atom_site_fract_y
 _atom_site_fract_z
 _atom_site_occupancy
  Nb  Nb0  1  0.13036553  0.26119366  0.94025561  1
  Nb  Nb1  1  0.13036553  0.26119365  0.55974439  1
  Nb  Nb2  1  0.20229125  0.40409770  0.24999999  1
  Nb  Nb3  1  0.79770115  0.59590245  0.75000000  1
  Nb  Nb4  1  0.86963407  0.73880586  0.05974372  1
  Nb  Nb5  1  0.86963408  0.73880588  0.44025628  1
  N  N0  1  0.30867393  0.61710929  0.42544958  1
  N  N1  1  0.04726095  0.09433175  0.11962161  1
  N  N2  1  0.04726093  0.09433174  0.38037838  1
  N  N3  1  0.30867394  0.61710927  0.07455042  1
  N  N4  1  0.23512697  0.47048328  0.75000001  1
  N  N5  1  0.95273963  0.90566899  0.88037944  1
  N  N6  1  0.69132871  0.38289045  0.57455000  1
  N  N7  1  0.69132869  0.38289044  0.92545001  1
  N  N8  1  0.76487399  0.52951661  0.24999999  1
  N  N9  1  0.95273965  0.90566898  0.61962056  1
loop_
_geom_bond_atom_site_label_1
_geom_bond_atom_site_label_2
_geom_bond_distance
_geom_bond_site_symmetry_2
N0 Nb5 2.055203 1_455
N0 Nb5 2.055822 1_555
N0 Nb2 2.133538 1_555
N0 Nb1 2.317929 1_555
N1 Nb4 1.950469 1_445
N1 Nb0 2.056253 1_554
N1 Nb2 2.104831 1_555
N1 N2 2.710209 1_555
N2 Nb5 1.950469 1_445
N2 Nb1 2.056253 1_555
N2 Nb2 2.104832 1_555
N3 Nb4 2.055203 1_455
N3 Nb4 2.055822 1_555
N3 Nb2 2.133538 1_555
N3 Nb0 2.317929 1_554
N4 Nb3 2.055193 1_555
N4 Nb3 2.056409 1_455
N4 Nb0 2.257083 1_555
N4 Nb1 2.257083 1_555
N5 Nb0 1.950457 1_665
N5 Nb4 2.056239 1_556
N5 Nb3 2.104841 1_555
N5 N9 2.710231 1_555
N6 Nb1 2.055192 1_655
N6 Nb1 2.055832 1_555
N6 Nb3 2.133543 1_555
N6 Nb5 2.317921 1_555
N7 Nb0 2.055192 1_655
N7 Nb0 2.055832 1_555
N7 Nb3 2.133543 1_555
N7 Nb4 2.317921 1_556
N8 Nb2 2.055224 1_555
N8 Nb2 2.056376 1_655
N8 Nb4 2.257088 1_555
N8 Nb5 2.257088 1_555
N9 Nb1 1.950457 1_665
N9 Nb5 2.056239 1_555
N9 Nb3 2.104841 1_555
