# generated using pymatgen
data_Li2CrF4
_symmetry_space_group_name_H-M   'P 1'
_cell_length_a   4.08069500
_cell_length_b   8.85254700
_cell_length_c   8.94242350
_cell_angle_alpha   87.69929134
_cell_angle_beta   90.00000000
_cell_angle_gamma   90.00000000
_symmetry_Int_Tables_number   1
_chemical_formula_structural   Li2CrF4
_chemical_formula_sum   'Li8 Cr4 F16'
_cell_volume   322.78056992
_cell_formula_units_Z   4
loop_
 _symmetry_equiv_pos_site_id
 _symmetry_equiv_pos_as_xyz
  1  'x, y, z'
loop_
 _atom_site_type_symbol
 _atom_site_label
 _atom_site_symmetry_multiplicity
 _atom_site_fract_x
 _atom_site_fract_y
 _atom_site_fract_z
 _atom_site_occupancy
  Li  Li0  1  0.00000000  0.07459600  0.37201400  1
  Li  Li1  1  0.50000000  0.10509200  0.57811900  1
  Li  Li2  1  0.00000000  0.38294500  0.13250800  1
  Li  Li3  1  0.50000000  0.35972200  0.88417500  1
  Li  Li4  1  0.50000000  0.61943400  0.09670800  1
  Li  Li5  1  0.00000000  0.61537800  0.87571600  1
  Li  Li6  1  0.50000000  0.65741400  0.63309000  1
  Li  Li7  1  0.00000000  0.88194400  0.61716800  1
  Cr  Cr0  1  0.50000000  0.11749800  0.13837400  1
  Cr  Cr1  1  0.00000000  0.37186500  0.62021100  1
  Cr  Cr2  1  0.00000000  0.64887800  0.36480200  1
  Cr  Cr3  1  0.50000000  0.88425000  0.87950400  1
  F  F0  1  0.50000000  0.13652200  0.91318800  1
  F  F1  1  0.50000000  0.11172200  0.36380900  1
  F  F2  1  0.00000000  0.15241000  0.15897600  1
  F  F3  1  0.00000000  0.11083800  0.58674800  1
  F  F4  1  0.50000000  0.38605800  0.09995700  1
  F  F5  1  0.50000000  0.35747100  0.63953400  1
  F  F6  1  0.00000000  0.38657100  0.84749300  1
  F  F7  1  0.00000000  0.41603600  0.39454400  1
  F  F8  1  0.00000000  0.64665600  0.64056600  1
  F  F9  1  0.00000000  0.59925900  0.10427000  1
  F  F10  1  0.50000000  0.63958400  0.39434500  1
  F  F11  1  0.50000000  0.61343000  0.86182300  1
  F  F12  1  0.00000000  0.86769200  0.40116600  1
  F  F13  1  0.00000000  0.85777600  0.85712000  1
  F  F14  1  0.50000000  0.88849000  0.65093900  1
  F  F15  1  0.50000000  0.85102100  0.09956100  1
loop_
_geom_bond_atom_site_label_1
_geom_bond_atom_site_label_2
_geom_bond_distance
_geom_bond_site_symmetry_2
Cr0 F0 2.013990 1_554
Cr0 F1 2.014531 1_555
Cr0 F2 2.072932 1_655
Cr0 F2 2.072932 1_555
Cr0 F4 2.388444 1_555
Cr0 F15 2.398142 1_545
Cr1 F7 2.040076 1_555
Cr1 F6 2.041826 1_555
Cr1 F5 2.051181 1_455
Cr1 F5 2.051181 1_555
Cr1 F3 2.341932 1_555
Cr1 F8 2.446677 1_555
Cr2 F12 1.976999 1_555
Cr2 F10 2.058601 1_455
Cr2 F10 2.058601 1_555
Cr2 F7 2.067717 1_555
Cr2 F9 2.388099 1_555
Cr2 F8 2.465287 1_555
Cr3 F15 1.977994 1_556
Cr3 F14 2.042763 1_555
Cr3 F13 2.064407 1_655
Cr3 F13 2.064407 1_555
Cr3 F0 2.265424 1_565
Cr3 F11 2.408980 1_555
F0 Li3 1.982496 1_555
F1 Li1 1.914993 1_555
F1 Li0 2.067482 1_555
F1 Li0 2.067482 1_655
F2 Li0 1.999617 1_555
F2 Li2 2.045041 1_555
F3 Li0 1.959523 1_555
F3 Li7 2.033621 1_545
F3 Li1 2.042517 1_455
F3 Li1 2.042517 1_555
F4 Li3 1.952917 1_554
F4 Li2 2.061035 1_655
F4 Li2 2.061035 1_555
F4 Li4 2.065010 1_555
F5 Li3 2.188574 1_555
F5 Li1 2.322019 1_555
F5 Li6 2.653571 1_555
F6 Li5 2.051217 1_555
F6 Li3 2.078666 1_555
F6 Li3 2.078666 1_455
F6 Li2 2.547638 1_556
F7 Li2 2.373117 1_555
F8 Li6 2.043538 1_455
F8 Li6 2.043538 1_555
F8 Li7 2.085007 1_555
F8 Li5 2.109913 1_555
F9 Li2 1.921431 1_555
F9 Li5 2.043079 1_554
F9 Li4 2.049029 1_455
F9 Li4 2.049029 1_555
F10 Li6 2.147096 1_555
F10 Li4 2.674702 1_555
F10 F7 2.842368 1_555
F10 F7 2.842368 1_655
F10 F12 2.873038 1_555
F10 F12 2.873038 1_655
F11 Li5 2.044241 1_655
F11 Li5 2.044241 1_555
F11 Li6 2.066746 1_555
F11 Li4 2.103245 1_556
F11 Li3 2.246832 1_555
F12 Li0 1.839696 1_565
F12 Li7 1.940745 1_555
F13 Li5 2.145607 1_555
F13 Li7 2.147829 1_555
F14 Li1 2.000130 1_565
F14 Li6 2.058207 1_555
F14 Li7 2.063730 1_555
F14 Li7 2.063730 1_655
F15 Li4 2.051317 1_555
