# generated using pymatgen
data_Li3VCr4O8
_symmetry_space_group_name_H-M   'P 1'
_cell_length_a   6.02354314
_cell_length_b   6.02354314
_cell_length_c   5.97762795
_cell_angle_alpha   61.74635251
_cell_angle_beta   61.74635251
_cell_angle_gamma   59.15412125
_symmetry_Int_Tables_number   1
_chemical_formula_structural   Li3VCr4O8
_chemical_formula_sum   'Li3 V1 Cr4 O8'
_cell_volume   156.20786028
_cell_formula_units_Z   1
loop_
 _symmetry_equiv_pos_site_id
 _symmetry_equiv_pos_as_xyz
  1  'x, y, z'
loop_
 _atom_site_type_symbol
 _atom_site_label
 _atom_site_symmetry_multiplicity
 _atom_site_fract_x
 _atom_site_fract_y
 _atom_site_fract_z
 _atom_site_occupancy
  Li  Li0  1  0.00000000  0.50000000  0.00000000  1
  Li  Li1  1  0.00000000  0.00000000  0.50000000  1
  Li  Li2  1  0.50000000  0.00000000  0.00000000  1
  V  V0  1  0.50000000  0.50000000  0.00000000  1
  Cr  Cr0  1  0.50000000  0.50000000  0.50000000  1
  Cr  Cr1  1  0.00000000  0.00000000  0.00000000  1
  Cr  Cr2  1  0.00000000  0.50000000  0.50000000  1
  Cr  Cr3  1  0.50000000  0.00000000  0.50000000  1
  O  O0  1  0.25456000  0.25456000  0.26554600  1
  O  O1  1  0.26864700  0.76299300  0.73086700  1
  O  O2  1  0.76299300  0.26864700  0.73086700  1
  O  O3  1  0.73537900  0.73537900  0.27969300  1
  O  O4  1  0.26462100  0.26462100  0.72030700  1
  O  O5  1  0.23700700  0.73135300  0.26913300  1
  O  O6  1  0.73135300  0.23700700  0.26913300  1
  O  O7  1  0.74544000  0.74544000  0.73445400  1
loop_
_geom_bond_atom_site_label_1
_geom_bond_atom_site_label_2
_geom_bond_distance
_geom_bond_site_symmetry_2
Li0 O3 2.179418 1_455
Li0 O4 2.179418 1_554
Li0 O0 2.194180 1_555
Li0 O7 2.194180 1_454
Li0 O1 2.338266 1_554
Li0 O6 2.338266 1_455
Li1 O2 2.107416 1_455
Li1 O1 2.107416 1_545
Li1 O5 2.107416 1_545
Li1 O6 2.107416 1_455
Li1 O7 2.237958 1_445
Li1 O0 2.237958 1_555
Li2 O3 2.179418 1_545
Li2 O4 2.179418 1_554
Li2 O0 2.194180 1_555
Li2 O7 2.194180 1_544
Li2 O2 2.338266 1_554
Li2 O5 2.338266 1_545
Cr0 O3 2.068963 1_555
Cr0 O4 2.068963 1_555
Cr0 O1 2.083565 1_555
Cr0 O2 2.083565 1_555
Cr0 O5 2.083565 1_555
Cr0 O6 2.083565 1_555
Cr1 O6 2.141395 1_455
Cr1 O5 2.141395 1_545
Cr1 O2 2.141395 1_454
Cr1 O1 2.141395 1_544
Cr1 O3 2.331515 1_445
Cr1 O4 2.331515 1_554
Cr2 O7 2.025707 1_455
Cr2 O0 2.025707 1_555
Cr2 O4 2.046287 1_555
Cr2 O3 2.046287 1_455
Cr2 O5 2.058820 1_555
Cr2 O2 2.058820 1_455
Cr3 O7 2.025707 1_545
Cr3 O0 2.025707 1_555
Cr3 O4 2.046287 1_555
Cr3 O3 2.046287 1_545
Cr3 O6 2.058820 1_555
Cr3 O1 2.058820 1_545
O0 V0 2.165381 1_555
O1 V0 2.117926 1_556
O2 V0 2.117926 1_556
O5 V0 2.117926 1_555
O6 V0 2.117926 1_555
O7 V0 2.165381 1_556
