# generated using pymatgen
data_Li9Mn7Cr12O48
_symmetry_space_group_name_H-M   'P 1'
_cell_length_a   5.14796900
_cell_length_b   10.35786985
_cell_length_c   17.43450433
_cell_angle_alpha   90.12498211
_cell_angle_beta   90.51513480
_cell_angle_gamma   90.19959778
_symmetry_Int_Tables_number   1
_chemical_formula_structural   Li9Mn7Cr12O48
_chemical_formula_sum   'Li9 Mn7 Cr12 O48'
_cell_volume   929.59702618
_cell_formula_units_Z   1
loop_
 _symmetry_equiv_pos_site_id
 _symmetry_equiv_pos_as_xyz
  1  'x, y, z'
loop_
 _atom_site_type_symbol
 _atom_site_label
 _atom_site_symmetry_multiplicity
 _atom_site_fract_x
 _atom_site_fract_y
 _atom_site_fract_z
 _atom_site_occupancy
  Li  Li0  1  0.24318500  0.42401900  0.96886500  1
  Li  Li1  1  0.24486100  0.74738400  0.30230400  1
  Li  Li2  1  0.25887900  0.25501000  0.79901500  1
  Li  Li3  1  0.25470800  0.57762300  0.47047300  1
  Li  Li4  1  0.40260900  0.74841900  0.75055200  1
  Li  Li5  1  0.59782900  0.25202100  0.24935500  1
  Li  Li6  1  0.74474000  0.07784800  0.53029800  1
  Li  Li7  1  0.74019700  0.74596600  0.20230600  1
  Li  Li8  1  0.75591400  0.24950000  0.69851000  1
  Mn  Mn0  1  0.09660600  0.25101000  0.25192000  1
  Mn  Mn1  1  0.24804100  0.08005300  0.97087200  1
  Mn  Mn2  1  0.25054000  0.92793700  0.47427200  1
  Mn  Mn3  1  0.75006000  0.43164900  0.52512200  1
  Mn  Mn4  1  0.75066800  0.57069200  0.02707500  1
  Mn  Mn5  1  0.74968400  0.92135700  0.02917900  1
  Mn  Mn6  1  0.90348900  0.74950400  0.74805300  1
  Cr  Cr0  1  0.21980100  0.74956700  0.94398900  1
  Cr  Cr1  1  0.22257500  0.02721700  0.65628300  1
  Cr  Cr2  1  0.21805700  0.47164400  0.65394200  1
  Cr  Cr3  1  0.27705300  0.52965900  0.15490900  1
  Cr  Cr4  1  0.27734800  0.97075500  0.15643200  1
  Cr  Cr5  1  0.28079900  0.25114300  0.44481600  1
  Cr  Cr6  1  0.71946800  0.74971100  0.55511900  1
  Cr  Cr7  1  0.72212200  0.02932600  0.84408700  1
  Cr  Cr8  1  0.72557300  0.47189000  0.84385100  1
  Cr  Cr9  1  0.77833700  0.52738600  0.34494200  1
  Cr  Cr10  1  0.77853500  0.97171400  0.34512400  1
  Cr  Cr11  1  0.77999500  0.24962400  0.05654700  1
  O  O0  1  0.04331000  0.24872600  0.99912000  1
  O  O1  1  0.04682500  0.60578200  0.36959300  1
  O  O2  1  0.05570300  0.89319600  0.37256700  1
  O  O3  1  0.10150000  0.62564300  0.20830300  1
  O  O4  1  0.09796800  0.87664200  0.20906400  1
  O  O5  1  0.10580700  0.12049700  0.46542500  1
  O  O6  1  0.09281100  0.37702800  0.46540300  1
  O  O7  1  0.09586000  0.00331100  0.07652200  1
  O  O8  1  0.09764000  0.49644800  0.07672200  1
  O  O9  1  0.14982200  0.74986900  0.85038900  1
  O  O10  1  0.15617100  0.60898500  0.70111400  1
  O  O11  1  0.15559000  0.88841500  0.70330600  1
  O  O12  1  0.34077900  0.10998000  0.20297300  1
  O  O13  1  0.34046900  0.39050900  0.20194700  1
  O  O14  1  0.34564800  0.25115900  0.35097500  1
  O  O15  1  0.40067900  0.99350800  0.57675100  1
  O  O16  1  0.40085100  0.50505100  0.57726700  1
  O  O17  1  0.40165000  0.88182300  0.96541400  1
  O  O18  1  0.40633200  0.62379100  0.96563300  1
  O  O19  1  0.40623000  0.12123100  0.70975200  1
  O  O20  1  0.39186200  0.37563100  0.70742100  1
  O  O21  1  0.44910100  0.10834200  0.86989300  1
  O  O22  1  0.45429800  0.39564500  0.86904700  1
  O  O23  1  0.45227300  0.75359700  0.49804400  1
  O  O24  1  0.55310000  0.25773800  0.50269300  1
  O  O25  1  0.55348000  0.60722600  0.12861200  1
  O  O26  1  0.55059400  0.89206000  0.13061900  1
  O  O27  1  0.59387100  0.62041800  0.29184400  1
  O  O28  1  0.60392700  0.87566500  0.29082800  1
  O  O29  1  0.59339200  0.11896900  0.03540500  1
  O  O30  1  0.59840700  0.37761300  0.03567800  1
  O  O31  1  0.59771900  0.00419200  0.42268800  1
  O  O32  1  0.60083000  0.49261500  0.42588200  1
  O  O33  1  0.65426900  0.75067800  0.64875000  1
  O  O34  1  0.65936000  0.61113500  0.79671000  1
  O  O35  1  0.65873900  0.89032500  0.79758400  1
  O  O36  1  0.84405300  0.10951800  0.29808200  1
  O  O37  1  0.84337100  0.38982000  0.29757800  1
  O  O38  1  0.85252000  0.24906500  0.15035000  1
  O  O39  1  0.90419800  0.50601400  0.92314900  1
  O  O40  1  0.90301800  0.99499400  0.92428600  1
  O  O41  1  0.89579200  0.61540400  0.53405500  1
  O  O42  1  0.90941800  0.87533100  0.53374700  1
  O  O43  1  0.90366800  0.12350900  0.79249600  1
  O  O44  1  0.90390000  0.37665200  0.79025300  1
  O  O45  1  0.95398800  0.10537700  0.63102900  1
  O  O46  1  0.93654900  0.39262000  0.62427500  1
  O  O47  1  0.95098400  0.74862700  0.00254900  1
loop_
_geom_bond_atom_site_label_1
_geom_bond_atom_site_label_2
_geom_bond_distance
_geom_bond_site_symmetry_2
Li0 O22 2.080885 1_555
Li0 O39 2.095278 1_455
Li0 O0 2.152795 1_555
Li0 O8 2.164101 1_556
Li0 O30 2.214097 1_556
Li0 O18 2.231470 1_555
Li1 O1 2.141359 1_555
Li1 O2 2.180254 1_555
Li1 O3 2.187087 1_555
Li1 O4 2.236364 1_555
Li1 O27 2.238783 1_555
Li1 O28 2.283205 1_555
Li2 O22 2.141189 1_555
Li2 O20 2.145248 1_555
Li2 O21 2.188749 1_555
Li2 O19 2.221836 1_555
Li2 O44 2.227587 1_455
Li2 O43 2.278206 1_455
Li3 O1 2.072261 1_555
Li3 O23 2.135938 1_555
Li3 O16 2.140698 1_555
Li3 O32 2.141827 1_555
Li3 O41 2.199065 1_455
Li3 O6 2.237239 1_555
Li4 O11 2.097017 1_555
Li4 O10 2.097706 1_555
Li4 O34 2.101329 1_555
Li4 O35 2.129126 1_555
Li4 O9 2.182700 1_555
Li4 O33 2.206907 1_555
Li5 O37 2.074834 1_555
Li5 O13 2.120098 1_555
Li5 O36 2.122780 1_555
Li5 O12 2.128744 1_555
Li5 O38 2.177201 1_555
Li5 O14 2.205834 1_555
Li6 O45 2.070640 1_555
Li6 O15 2.138776 1_545
Li6 O31 2.153819 1_555
Li6 O24 2.164465 1_555
Li6 O5 2.227920 1_655
Li6 O42 2.265931 1_545
Li7 O25 2.144742 1_555
Li7 O28 2.166965 1_555
Li7 O27 2.172223 1_555
Li7 O26 2.191171 1_555
Li7 O3 2.244305 1_655
Li7 O4 2.283889 1_655
Li8 O45 2.162610 1_555
Li8 O46 2.181233 1_555
Li8 O44 2.198914 1_555
Li8 O43 2.227201 1_555
Li8 O19 2.243876 1_555
Li8 O20 2.294496 1_555
Mn0 O37 2.104061 1_455
Mn0 O13 2.106040 1_555
Mn0 O12 2.113945 1_555
Mn0 O36 2.120522 1_455
Mn0 O14 2.141562 1_555
Mn0 O38 2.162125 1_455
Mn1 O21 2.071115 1_555
Mn1 O0 2.103354 1_555
Mn1 O29 2.132174 1_556
Mn1 O40 2.133236 1_445
Mn1 O7 2.160182 1_556
Mn1 O17 2.204992 1_545
Mn2 O15 2.053553 1_555
Mn2 O2 2.059709 1_555
Mn2 O42 2.117658 1_455
Mn2 O23 2.125972 1_555
Mn2 O5 2.136970 1_565
Mn2 O31 2.156189 1_565
Mn3 O32 1.991678 1_555
Mn3 O46 2.012301 1_555
Mn3 O41 2.048497 1_555
Mn3 O24 2.098313 1_555
Mn3 O6 2.134221 1_655
Mn3 O16 2.161533 1_555
Mn4 O25 2.083147 1_555
Mn4 O39 2.092989 1_554
Mn4 O8 2.125036 1_655
Mn4 O18 2.137153 1_554
Mn4 O30 2.151498 1_555
Mn4 O47 2.154329 1_555
Mn5 O26 2.074387 1_555
Mn5 O47 2.123281 1_555
Mn5 O7 2.130191 1_665
Mn5 O17 2.137930 1_554
Mn5 O40 2.139400 1_554
Mn5 O29 2.204715 1_565
Mn6 O34 2.089284 1_555
Mn6 O11 2.091227 1_655
Mn6 O35 2.118403 1_555
Mn6 O10 2.123050 1_655
Mn6 O33 2.145654 1_555
Mn6 O9 2.179604 1_655
Cr0 O18 1.663143 1_555
Cr0 O9 1.668007 1_555
Cr0 O17 1.695599 1_555
Cr0 O47 1.727105 1_456
Cr1 O19 1.638572 1_555
Cr1 O45 1.661164 1_455
Cr1 O11 1.692559 1_545
Cr1 O15 1.705347 1_545
Cr2 O20 1.629157 1_555
Cr2 O10 1.674609 1_555
Cr2 O16 1.677685 1_555
Cr2 O46 1.736110 1_455
Cr3 O3 1.639842 1_555
Cr3 O8 1.674120 1_555
Cr3 O13 1.691176 1_555
Cr3 O25 1.698854 1_555
Cr4 O4 1.630301 1_555
Cr4 O12 1.682694 1_565
Cr4 O26 1.692162 1_555
Cr4 O7 1.705414 1_565
Cr5 O5 1.664715 1_555
Cr5 O6 1.666893 1_555
Cr5 O14 1.672723 1_555
Cr5 O24 1.720899 1_555
Cr6 O33 1.669528 1_555
Cr6 O42 1.669686 1_555
Cr6 O23 1.691087 1_555
Cr6 O41 1.704882 1_555
Cr7 O43 1.626886 1_555
Cr7 O35 1.680346 1_545
Cr7 O21 1.692774 1_555
Cr7 O40 1.711662 1_545
Cr8 O44 1.645233 1_555
Cr8 O22 1.664862 1_555
Cr8 O39 1.689562 1_555
Cr8 O34 1.695703 1_555
Cr9 O27 1.637617 1_555
Cr9 O1 1.653615 1_655
Cr9 O37 1.681504 1_555
Cr9 O32 1.726034 1_555
Cr10 O28 1.633459 1_555
Cr10 O36 1.682405 1_565
Cr10 O31 1.682599 1_565
Cr10 O2 1.709900 1_655
Cr11 O30 1.663831 1_555
Cr11 O38 1.674236 1_555
Cr11 O0 1.692467 1_654
Cr11 O29 1.694848 1_555
