# generated using pymatgen
data_Li8FeCo9O20
_symmetry_space_group_name_H-M   'P 1'
_cell_length_a   4.90599000
_cell_length_b   7.48536590
_cell_length_c   9.72205134
_cell_angle_alpha   96.34832397
_cell_angle_beta   94.81205138
_cell_angle_gamma   109.03644343
_symmetry_Int_Tables_number   1
_chemical_formula_structural   Li8FeCo9O20
_chemical_formula_sum   'Li8 Fe1 Co9 O20'
_cell_volume   332.68429658
_cell_formula_units_Z   1
loop_
 _symmetry_equiv_pos_site_id
 _symmetry_equiv_pos_as_xyz
  1  'x, y, z'
loop_
 _atom_site_type_symbol
 _atom_site_label
 _atom_site_symmetry_multiplicity
 _atom_site_fract_x
 _atom_site_fract_y
 _atom_site_fract_z
 _atom_site_occupancy
  Li  Li0  1  0.59116200  0.93831900  0.24584900  1
  Li  Li1  1  0.19552400  0.13838400  0.24650600  1
  Li  Li2  1  0.40883800  0.06168100  0.75415100  1
  Li  Li3  1  0.80733200  0.36368600  0.24879300  1
  Li  Li4  1  0.59946600  0.44219300  0.75222300  1
  Li  Li5  1  0.40053400  0.55780700  0.24777700  1
  Li  Li6  1  0.19266800  0.63631400  0.75120700  1
  Li  Li7  1  0.80447600  0.86161600  0.75349400  1
  Fe  Fe0  1  0.00000000  0.00000000  0.50000000  1
  Co  Co0  1  0.20069600  0.90004700  0.00196200  1
  Co  Co1  1  0.60508000  0.20139700  0.49994400  1
  Co  Co2  1  0.79930400  0.09995300  0.99803800  1
  Co  Co3  1  0.39616200  0.29900800  0.99890600  1
  Co  Co4  1  0.20184300  0.40068800  0.50199200  1
  Co  Co5  1  0.79815700  0.59931200  0.49800800  1
  Co  Co6  1  0.00000000  0.50000000  0.00000000  1
  Co  Co7  1  0.39492000  0.79860300  0.50005600  1
  Co  Co8  1  0.60383800  0.70099200  0.00109400  1
  O  O0  1  0.89364300  0.92484600  0.10483600  1
  O  O1  1  0.31156400  0.98446800  0.39374600  1
  O  O2  1  0.68843600  0.01553200  0.60625400  1
  O  O3  1  0.50451300  0.87776900  0.89183600  1
  O  O4  1  0.10635700  0.07515400  0.89516400  1
  O  O5  1  0.30728500  0.21964200  0.60656800  1
  O  O6  1  0.49548700  0.12223100  0.10816400  1
  O  O7  1  0.90918700  0.17590900  0.39047700  1
  O  O8  1  0.50653600  0.37905300  0.39120100  1
  O  O9  1  0.69754900  0.28150100  0.89545200  1
  O  O10  1  0.89566300  0.42590700  0.60528000  1
  O  O11  1  0.09325900  0.32161100  0.10734800  1
  O  O12  1  0.68858800  0.51707100  0.10268800  1
  O  O13  1  0.10433700  0.57409300  0.39472000  1
  O  O14  1  0.49346400  0.62094700  0.60879900  1
  O  O15  1  0.31141200  0.48292900  0.89731200  1
  O  O16  1  0.09081300  0.82409100  0.60952300  1
  O  O17  1  0.90674100  0.67838900  0.89265200  1
  O  O18  1  0.30245100  0.71849900  0.10454800  1
  O  O19  1  0.69271500  0.78035800  0.39343200  1
loop_
_geom_bond_atom_site_label_1
_geom_bond_atom_site_label_2
_geom_bond_distance
_geom_bond_site_symmetry_2
Li0 O18 2.062559 1_555
Li0 O19 2.084344 1_555
Li0 O0 2.121362 1_555
Li0 O1 2.144417 1_555
Li0 O6 2.151953 1_565
Li0 O7 2.200700 1_565
Li1 O0 2.066883 1_445
Li1 O1 2.087210 1_545
Li1 O6 2.097950 1_555
Li1 O7 2.124088 1_455
Li1 O11 2.169900 1_555
Li1 O8 2.199714 1_555
Li2 O9 2.062559 1_555
Li2 O5 2.084344 1_555
Li2 O4 2.121362 1_555
Li2 O2 2.144417 1_555
Li2 O3 2.151953 1_545
Li2 O16 2.200700 1_545
Li3 O13 2.068434 1_655
Li3 O12 2.081683 1_555
Li3 O11 2.115175 1_655
Li3 O8 2.127453 1_555
Li3 O6 2.185243 1_555
Li3 O7 2.212151 1_555
Li4 O9 2.062262 1_555
Li4 O5 2.101226 1_555
Li4 O10 2.143053 1_555
Li4 O15 2.144807 1_555
Li4 O17 2.155127 1_555
Li4 O14 2.179435 1_555
Li5 O18 2.062262 1_555
Li5 O19 2.101226 1_555
Li5 O13 2.143053 1_555
Li5 O12 2.144807 1_555
Li5 O11 2.155127 1_555
Li5 O8 2.179435 1_555
Li6 O10 2.068434 1_455
Li6 O15 2.081683 1_555
Li6 O17 2.115175 1_455
Li6 O14 2.127453 1_555
Li6 O3 2.185243 1_555
Li6 O16 2.212151 1_555
Li7 O4 2.066883 1_665
Li7 O2 2.087210 1_565
Li7 O3 2.097950 1_555
Li7 O16 2.124088 1_655
Li7 O17 2.169900 1_555
Li7 O14 2.199714 1_555
Fe0 O16 1.918134 1_545
Fe0 O7 1.918134 1_455
Fe0 O1 1.941985 1_545
Fe0 O2 1.941985 1_455
Fe0 O5 1.947707 1_555
Fe0 O19 1.947707 1_445
Co0 O4 1.904307 1_564
Co0 O0 1.923050 1_455
Co0 O6 1.929853 1_565
Co0 O18 1.936339 1_555
Co0 O17 1.937545 1_454
Co0 O3 1.945806 1_554
Co1 O5 1.892247 1_555
Co1 O1 1.905448 1_545
Co1 O10 1.927925 1_555
Co1 O8 1.940202 1_555
Co1 O2 1.946617 1_555
Co1 O7 1.949895 1_555
Co2 O0 1.904307 1_546
Co2 O4 1.923050 1_655
Co2 O3 1.929853 1_545
Co2 O9 1.936339 1_555
Co2 O11 1.937545 1_656
Co2 O6 1.945806 1_556
Co3 O9 1.887273 1_555
Co3 O12 1.898918 1_556
Co3 O15 1.910234 1_555
Co3 O4 1.917810 1_555
Co3 O11 1.932838 1_556
Co3 O6 1.939414 1_556
Co4 O13 1.903153 1_555
Co4 O14 1.917498 1_555
Co4 O10 1.922621 1_455
Co4 O8 1.952017 1_555
Co4 O5 1.952330 1_555
Co4 O7 1.956362 1_455
Co5 O10 1.903153 1_555
Co5 O8 1.917498 1_555
Co5 O13 1.922621 1_655
Co5 O14 1.952017 1_555
Co5 O19 1.952330 1_555
Co5 O16 1.956362 1_655
Co6 O15 1.924102 1_554
Co6 O12 1.924102 1_455
Co6 O18 1.925109 1_555
Co6 O9 1.925109 1_454
Co6 O11 1.925663 1_555
Co6 O17 1.925663 1_454
Co7 O19 1.892247 1_555
Co7 O2 1.905448 1_565
Co7 O13 1.927925 1_555
Co7 O14 1.940202 1_555
Co7 O1 1.946617 1_555
Co7 O16 1.949895 1_555
Co8 O18 1.887273 1_555
Co8 O15 1.898918 1_554
Co8 O12 1.910234 1_555
Co8 O0 1.917810 1_555
Co8 O17 1.932838 1_554
Co8 O3 1.939414 1_554
