# generated using pymatgen
data_Ba2Cu(C3O8)2
_symmetry_space_group_name_H-M   'P 1'
_cell_length_a   6.77568900
_cell_length_b   7.79926450
_cell_length_c   9.83479338
_cell_angle_alpha   70.13118492
_cell_angle_beta   82.35314984
_cell_angle_gamma   83.34399386
_symmetry_Int_Tables_number   1
_chemical_formula_structural   Ba2Cu(C3O8)2
_chemical_formula_sum   'Ba2 Cu1 C6 O16'
_cell_volume   483.04444423
_cell_formula_units_Z   1
loop_
 _symmetry_equiv_pos_site_id
 _symmetry_equiv_pos_as_xyz
  1  'x, y, z'
loop_
 _atom_site_type_symbol
 _atom_site_label
 _atom_site_symmetry_multiplicity
 _atom_site_fract_x
 _atom_site_fract_y
 _atom_site_fract_z
 _atom_site_occupancy
  Ba  Ba0  1  0.26279700  0.50115700  0.34768700  1
  Ba  Ba1  1  0.73720300  0.49884300  0.65231300  1
  Cu  Cu0  1  0.50000000  0.50000000  0.00000000  1
  C  C0  1  0.12057600  0.90920300  0.39022100  1
  C  C1  1  0.87942400  0.09079700  0.60977900  1
  C  C2  1  0.20361700  0.88680400  0.88967600  1
  C  C3  1  0.79638300  0.11319600  0.11032400  1
  C  C4  1  0.69857200  0.63799700  0.30564600  1
  C  C5  1  0.30142800  0.36200300  0.69435400  1
  O  O0  1  0.21237200  0.99926400  0.28641500  1
  O  O1  1  0.78762800  0.00073600  0.71358500  1
  O  O2  1  0.03229400  0.81273500  0.49467000  1
  O  O3  1  0.96770600  0.18726500  0.50533000  1
  O  O4  1  0.20267100  0.82068000  0.01628800  1
  O  O5  1  0.79732900  0.17932000  0.98371200  1
  O  O6  1  0.20368000  0.95307800  0.76303700  1
  O  O7  1  0.79632000  0.04692200  0.23696300  1
  O  O8  1  0.87779400  0.58643000  0.34381700  1
  O  O9  1  0.12220600  0.41357000  0.65618300  1
  O  O10  1  0.65310700  0.64140300  0.18286700  1
  O  O11  1  0.34689400  0.35859700  0.81713300  1
  O  O12  1  0.64375300  0.62784900  0.85445300  1
  O  O13  1  0.35624700  0.37215100  0.14554700  1
  O  O14  1  0.56123600  0.67936500  0.39822800  1
  O  O15  1  0.43876400  0.32063500  0.60177200  1
loop_
_geom_bond_atom_site_label_1
_geom_bond_atom_site_label_2
_geom_bond_distance
_geom_bond_site_symmetry_2
Ba0 O13 2.498474 1_555
Ba0 O8 2.618378 1_455
Ba0 O14 2.767039 1_555
Ba0 O15 2.767765 1_555
Ba0 O9 2.924397 1_555
Ba0 O10 3.023656 1_555
Ba0 O3 3.181912 1_455
Ba0 O4 3.405290 1_555
Ba1 O12 2.498474 1_555
Ba1 O9 2.618378 1_655
Ba1 O15 2.767039 1_555
Ba1 O14 2.767765 1_555
Ba1 O8 2.924397 1_555
Ba1 O11 3.023650 1_555
Ba1 O2 3.181912 1_655
Ba1 O5 3.405290 1_555
Cu0 O13 1.695837 1_555
Cu0 O12 1.695837 1_554
C0 O0 1.169336 1_555
C0 O2 1.180910 1_555
C1 O1 1.169336 1_555
C1 O3 1.180910 1_555
C2 O4 1.174168 1_556
C2 O6 1.175025 1_555
C3 O5 1.174168 1_554
C3 O7 1.175025 1_555
C4 O10 1.276312 1_555
C4 O8 1.297232 1_555
C4 O14 1.305245 1_555
C5 O11 1.276314 1_555
C5 O9 1.297232 1_555
C5 O15 1.305245 1_555
