# generated using pymatgen
data_Co3C9SO9
_symmetry_space_group_name_H-M   'P 1'
_cell_length_a   9.77164900
_cell_length_b   13.32485839
_cell_length_c   13.49867992
_cell_angle_alpha   110.35655957
_cell_angle_beta   108.45800834
_cell_angle_gamma   97.10985725
_symmetry_Int_Tables_number   1
_chemical_formula_structural   Co3C9SO9
_chemical_formula_sum   'Co12 C36 S4 O36'
_cell_volume   1508.03058417
_cell_formula_units_Z   4
loop_
 _symmetry_equiv_pos_site_id
 _symmetry_equiv_pos_as_xyz
  1  'x, y, z'
loop_
 _atom_site_type_symbol
 _atom_site_label
 _atom_site_symmetry_multiplicity
 _atom_site_fract_x
 _atom_site_fract_y
 _atom_site_fract_z
 _atom_site_occupancy
  Co  Co0  1  0.79155100  0.76030300  0.29834300  1
  Co  Co1  1  0.32409700  0.09688400  0.22501800  1
  Co  Co2  1  0.53388800  0.68954800  0.65224300  1
  Co  Co3  1  0.06732300  0.38592800  0.77624900  1
  Co  Co4  1  0.27927400  0.34151800  0.92435600  1
  Co  Co5  1  0.61358100  0.16810800  0.26665500  1
  Co  Co6  1  0.20844900  0.23969700  0.70165700  1
  Co  Co7  1  0.46611200  0.31045200  0.34775700  1
  Co  Co8  1  0.67590300  0.90311600  0.77498200  1
  Co  Co9  1  0.38641900  0.83189200  0.73334500  1
  Co  Co10  1  0.93267700  0.61407200  0.22375100  1
  Co  Co11  1  0.72072600  0.65848200  0.07564400  1
  C  C0  1  0.37666700  0.95854500  0.83192900  1
  C  C1  1  0.69349900  0.15214700  0.39617300  1
  C  C2  1  0.91584000  0.29173900  0.77103300  1
  C  C3  1  0.01392700  0.59906500  0.35607300  1
  C  C4  1  0.61017100  0.42717000  0.38020800  1
  C  C5  1  0.15399100  0.23412100  0.55956200  1
  C  C6  1  0.64437200  0.93593100  0.65469300  1
  C  C7  1  0.71721000  0.03843300  0.88643700  1
  C  C8  1  0.69384100  0.63488700  0.67358200  1
  C  C9  1  0.23679300  0.73521700  0.72877000  1
  C  C10  1  0.92031400  0.88174900  0.32328900  1
  C  C11  1  0.06116600  0.51232500  0.87851800  1
  C  C12  1  0.08416000  0.70826100  0.22896700  1
  C  C13  1  0.83543000  0.76693800  0.06696100  1
  C  C14  1  0.30650100  0.84785300  0.60382700  1
  C  C15  1  0.62712400  0.80942400  0.28388000  1
  C  C16  1  0.16457000  0.23306200  0.93303900  1
  C  C17  1  0.07968600  0.11825100  0.67671100  1
  C  C18  1  0.84600900  0.76587900  0.44043800  1
  C  C19  1  0.70425300  0.54399300  0.94886000  1
  C  C20  1  0.29574700  0.45600700  0.05114000  1
  C  C21  1  0.35562800  0.06406900  0.34530700  1
  C  C22  1  0.62333300  0.04145500  0.16807100  1
  C  C23  1  0.76320700  0.26478300  0.27123000  1
  C  C24  1  0.38982900  0.57283000  0.61979200  1
  C  C25  1  0.37287600  0.19057600  0.71612000  1
  C  C26  1  0.13921000  0.11558400  0.19982000  1
  C  C27  1  0.98607300  0.40093500  0.64392700  1
  C  C28  1  0.45867800  0.31362600  0.96861100  1
  C  C29  1  0.49067700  0.69071900  0.51402200  1
  C  C30  1  0.54132200  0.68637400  0.03138900  1
  C  C31  1  0.86079000  0.88441600  0.80018000  1
  C  C32  1  0.30615900  0.36511300  0.32641800  1
  C  C33  1  0.50932300  0.30928100  0.48597800  1
  C  C34  1  0.28279000  0.96156700  0.11356300  1
  C  C35  1  0.93883400  0.48767500  0.12148200  1
  S  S0  1  0.69849500  0.58515500  0.19118500  1
  S  S1  1  0.57621400  0.79055600  0.82974500  1
  S  S2  1  0.30150500  0.41484500  0.80881500  1
  S  S3  1  0.42378600  0.20944400  0.17025500  1
  O  O0  1  0.70225400  0.50450900  0.40284700  1
  O  O1  1  0.92710100  0.41069000  0.56000000  1
  O  O2  1  0.85792000  0.32487000  0.26978300  1
  O  O3  1  0.79252900  0.59486400  0.69105100  1
  O  O4  1  0.05442800  0.59459300  0.94206800  1
  O  O5  1  0.94557200  0.40540700  0.05793200  1
  O  O6  1  0.45948800  0.68900200  0.42293500  1
  O  O7  1  0.30884500  0.52734100  0.13566100  1
  O  O8  1  0.69115500  0.47265900  0.86433900  1
  O  O9  1  0.01798600  0.12354300  0.18151300  1
  O  O10  1  0.74716700  0.13653300  0.47763500  1
  O  O11  1  0.00030400  0.96200700  0.33758100  1
  O  O12  1  0.57820500  0.30356600  0.00394400  1
  O  O13  1  0.91269400  0.83761700  0.06311000  1
  O  O14  1  0.42179500  0.69643400  0.99605600  1
  O  O15  1  0.11969100  0.22705300  0.46653300  1
  O  O16  1  0.75058100  0.12564600  0.95974600  1
  O  O17  1  0.20747100  0.40513600  0.30894900  1
  O  O18  1  0.36272300  0.03831500  0.89441800  1
  O  O19  1  0.81805500  0.23325600  0.77132300  1
  O  O20  1  0.52498000  0.84553900  0.28151700  1
  O  O21  1  0.47502000  0.15446100  0.71848300  1
  O  O22  1  0.18194500  0.76674400  0.22867700  1
  O  O23  1  0.08730600  0.16238300  0.93689000  1
  O  O24  1  0.07289900  0.58931000  0.44000000  1
  O  O25  1  0.98201400  0.87645700  0.81848700  1
  O  O26  1  0.25283300  0.86346700  0.52236500  1
  O  O27  1  0.63727700  0.96168500  0.10558200  1
  O  O28  1  0.29774600  0.49549100  0.59715300  1
  O  O29  1  0.62830200  0.95757100  0.57641700  1
  O  O30  1  0.24941900  0.87435400  0.04025400  1
  O  O31  1  0.14208000  0.67513000  0.73021700  1
  O  O32  1  0.99969600  0.03799300  0.66241900  1
  O  O33  1  0.88030900  0.77294700  0.53346700  1
  O  O34  1  0.37169800  0.04242900  0.42358300  1
  O  O35  1  0.54051200  0.31099800  0.57706500  1
loop_
_geom_bond_atom_site_label_1
_geom_bond_atom_site_label_2
_geom_bond_distance
_geom_bond_site_symmetry_2
Co0 S0 2.158481 1_555
Co1 S3 2.147230 1_555
Co2 S1 2.171323 1_555
Co3 S2 2.145958 1_555
Co4 S2 2.157910 1_555
Co5 S3 2.158612 1_555
Co6 S2 2.158481 1_555
Co7 S3 2.171323 1_555
Co8 S1 2.147230 1_555
Co9 S1 2.158612 1_555
Co10 S0 2.145958 1_555
Co11 S0 2.157910 1_555
C0 O18 1.159632 1_565
C0 Co9 1.784862 1_555
C1 O10 1.161254 1_555
C1 Co5 1.773971 1_555
C2 O19 1.157789 1_555
C2 Co3 1.784340 1_655
C3 O24 1.157600 1_555
C3 Co10 1.802931 1_455
C4 O0 1.158562 1_555
C4 Co7 1.784908 1_555
C5 O15 1.158252 1_555
C5 Co6 1.792350 1_555
C6 O29 1.158607 1_555
C6 Co8 1.770078 1_555
C7 O16 1.156659 1_555
C7 Co8 1.795975 1_545
C8 O3 1.157921 1_555
C8 Co2 1.788612 1_555
C9 O31 1.156232 1_555
C9 Co9 1.795043 1_555
C10 O11 1.160128 1_655
C10 Co0 1.778714 1_555
C11 O4 1.158143 1_555
C11 Co3 1.790551 1_555
C12 O22 1.157789 1_555
C12 Co10 1.784340 1_455
C13 O13 1.158699 1_555
C13 Co11 1.777241 1_555
C14 O26 1.161254 1_555
C14 Co9 1.773971 1_555
C15 O20 1.156828 1_555
C15 Co0 1.788487 1_555
C16 O23 1.158699 1_555
C16 Co4 1.777241 1_555
C17 O32 1.160128 1_455
C17 Co6 1.778714 1_555
C18 O33 1.158252 1_555
C18 Co0 1.792350 1_555
C19 O8 1.159524 1_555
C19 Co11 1.797360 1_556
C20 O7 1.159524 1_555
C20 Co4 1.797360 1_554
C21 O34 1.158607 1_555
C21 Co1 1.770078 1_555
C22 O27 1.159632 1_545
C22 Co5 1.784862 1_555
C23 O2 1.156232 1_555
C23 Co5 1.795043 1_555
C24 O28 1.158562 1_555
C24 Co2 1.784908 1_555
C25 O21 1.156828 1_555
C25 Co6 1.788487 1_555
C26 O9 1.157352 1_555
C26 Co1 1.795286 1_555
C27 O1 1.157600 1_555
C27 Co3 1.802931 1_655
C28 O12 1.157631 1_556
C28 Co4 1.794678 1_555
C29 O6 1.160443 1_555
C29 Co2 1.784031 1_555
C30 O14 1.157631 1_554
C30 Co11 1.794678 1_555
C31 O25 1.157352 1_555
C31 Co8 1.795286 1_555
C32 O17 1.157921 1_555
C32 Co7 1.788612 1_555
C33 O35 1.160443 1_555
C33 Co7 1.784031 1_555
C34 O30 1.156659 1_555
C34 Co1 1.795975 1_565
C35 O5 1.158143 1_555
C35 Co10 1.790551 1_555
