# generated using pymatgen
data_Li2TiMn3O8
_symmetry_space_group_name_H-M   'P 1'
_cell_length_a   6.00954412
_cell_length_b   6.00954412
_cell_length_c   9.53965300
_cell_angle_alpha   90.00000000
_cell_angle_beta   90.00000000
_cell_angle_gamma   122.21883517
_symmetry_Int_Tables_number   1
_chemical_formula_structural   Li2TiMn3O8
_chemical_formula_sum   'Li4 Ti2 Mn6 O16'
_cell_volume   291.47090400
_cell_formula_units_Z   2
loop_
 _symmetry_equiv_pos_site_id
 _symmetry_equiv_pos_as_xyz
  1  'x, y, z'
loop_
 _atom_site_type_symbol
 _atom_site_label
 _atom_site_symmetry_multiplicity
 _atom_site_fract_x
 _atom_site_fract_y
 _atom_site_fract_z
 _atom_site_occupancy
  Li  Li0  1  0.15598800  0.84401200  0.10283000  1
  Li  Li1  1  0.49346000  0.50654000  0.00623700  1
  Li  Li2  1  0.50654000  0.49346000  0.50623700  1
  Li  Li3  1  0.84401200  0.15598800  0.60283000  1
  Ti  Ti0  1  0.18116400  0.81883600  0.50650100  1
  Ti  Ti1  1  0.81883600  0.18116400  0.00650100  1
  Mn  Mn0  1  0.83823400  0.67050100  0.78408800  1
  Mn  Mn1  1  0.32949900  0.16176600  0.78408800  1
  Mn  Mn2  1  0.32722700  0.67277300  0.78575600  1
  Mn  Mn3  1  0.67277300  0.32722700  0.28575600  1
  Mn  Mn4  1  0.67050100  0.83823400  0.28408800  1
  Mn  Mn5  1  0.16176600  0.32949900  0.28408800  1
  O  O0  1  0.84911600  0.64183100  0.41179000  1
  O  O1  1  0.02854900  0.97145100  0.65763100  1
  O  O2  1  0.16797100  0.83202900  0.88709300  1
  O  O3  1  0.49253900  0.50746100  0.69649400  1
  O  O4  1  0.50746100  0.49253900  0.19649400  1
  O  O5  1  0.35816900  0.15088400  0.41179000  1
  O  O6  1  0.04355500  0.52927500  0.65616200  1
  O  O7  1  0.47072500  0.95644500  0.65616200  1
  O  O8  1  0.65525000  0.34475000  0.90085300  1
  O  O9  1  0.34475000  0.65525000  0.40085300  1
  O  O10  1  0.52927500  0.04355500  0.15616200  1
  O  O11  1  0.95644500  0.47072500  0.15616200  1
  O  O12  1  0.83202900  0.16797100  0.38709300  1
  O  O13  1  0.64183100  0.84911600  0.91179000  1
  O  O14  1  0.97145100  0.02854900  0.15763100  1
  O  O15  1  0.15088400  0.35816900  0.91179000  1
loop_
_geom_bond_atom_site_label_1
_geom_bond_atom_site_label_2
_geom_bond_distance
_geom_bond_site_symmetry_2
Li0 O10 1.964873 1_565
Li0 O11 1.964873 1_455
Li0 O14 2.011065 1_465
Li0 O2 2.061916 1_554
Li1 O4 1.820956 1_555
Li1 O15 1.971750 1_554
Li1 O13 1.971750 1_554
Li1 O8 1.977214 1_554
Li2 O3 1.820956 1_555
Li2 O5 1.971750 1_555
Li2 O0 1.971750 1_555
Li2 O9 1.977214 1_555
Li3 O6 1.964873 1_655
Li3 O7 1.964873 1_545
Li3 O1 2.011065 1_645
Li3 O12 2.061916 1_555
Mn0 O2 1.945092 1_655
Mn0 O3 1.950299 1_555
Mn0 O1 1.956696 1_655
Mn0 O8 1.996702 1_555
Mn0 O6 2.201980 1_655
Mn0 O13 2.319544 1_555
Mn1 O2 1.945092 1_545
Mn1 O3 1.950299 1_555
Mn1 O1 1.956696 1_545
Mn1 O8 1.996702 1_555
Mn1 O7 2.201980 1_545
Mn1 O15 2.319544 1_555
Mn2 O7 1.900162 1_555
Mn2 O6 1.900162 1_555
Mn2 O2 1.934723 1_555
Mn2 O3 1.936846 1_555
Mn2 O13 2.001666 1_555
Mn2 O15 2.001666 1_555
Mn3 O11 1.900162 1_555
Mn3 O10 1.900162 1_555
Mn3 O12 1.934723 1_555
Mn3 O4 1.936846 1_555
Mn3 O0 2.001666 1_555
Mn3 O5 2.001666 1_555
Mn4 O12 1.945092 1_565
Mn4 O4 1.950299 1_555
Mn4 O14 1.956696 1_565
Mn4 O9 1.996702 1_555
Mn4 O10 2.201980 1_565
Mn4 O0 2.319544 1_555
Mn5 O12 1.945092 1_455
Mn5 O4 1.950299 1_555
Mn5 O14 1.956696 1_455
Mn5 O9 1.996702 1_555
Mn5 O11 2.201980 1_455
Mn5 O5 2.319544 1_555
O0 Ti0 1.914765 1_655
O1 Ti0 2.158200 1_555
O5 Ti0 1.914765 1_545
O6 Ti0 2.053252 1_555
O7 Ti0 2.053252 1_555
O8 Ti1 1.994783 1_556
O9 Ti0 1.994783 1_555
O10 Ti1 2.053252 1_555
O11 Ti1 2.053252 1_555
O13 Ti1 1.914765 1_566
O14 Ti1 2.158200 1_555
O15 Ti1 1.914765 1_456
