# generated using pymatgen
data_Fe31Si5O48
_symmetry_space_group_name_H-M   'P 1'
_cell_length_a   10.43219700
_cell_length_b   10.44473446
_cell_length_c   10.51526846
_cell_angle_alpha   119.62360160
_cell_angle_beta   80.37527011
_cell_angle_gamma   109.96598422
_symmetry_Int_Tables_number   1
_chemical_formula_structural   Fe31Si5O48
_chemical_formula_sum   'Fe31 Si5 O48'
_cell_volume   936.13326124
_cell_formula_units_Z   1
loop_
 _symmetry_equiv_pos_site_id
 _symmetry_equiv_pos_as_xyz
  1  'x, y, z'
loop_
 _atom_site_type_symbol
 _atom_site_label
 _atom_site_symmetry_multiplicity
 _atom_site_fract_x
 _atom_site_fract_y
 _atom_site_fract_z
 _atom_site_occupancy
  Fe  Fe0  1  0.00370700  0.34093000  0.17379400  1
  Fe  Fe1  1  0.00137300  0.50311400  0.99946100  1
  Fe  Fe2  1  0.31107700  0.27095700  0.15750100  1
  Fe  Fe3  1  0.24892900  0.58727400  0.16958500  1
  Fe  Fe4  1  0.24889700  0.74939900  0.50224300  1
  Fe  Fe5  1  0.24837900  0.91450600  0.83340200  1
  Fe  Fe6  1  0.01381000  0.15265200  0.33313000  1
  Fe  Fe7  1  0.00245300  0.00109600  0.00452200  1
  Fe  Fe8  1  0.50003100  0.49742100  0.99840900  1
  Fe  Fe9  1  0.01394500  0.31777300  0.66521300  1
  Fe  Fe10  1  0.51537200  0.81783000  0.66580400  1
  Fe  Fe11  1  0.51455800  0.65292200  0.33754300  1
  Fe  Fe12  1  0.18654400  0.22839300  0.83783800  1
  Fe  Fe13  1  0.69082200  0.38905500  0.15753000  1
  Fe  Fe14  1  0.00367300  0.66789100  0.83210700  1
  Fe  Fe15  1  0.99762100  0.49964600  0.50103000  1
  Fe  Fe16  1  0.50407600  0.00169000  0.49971800  1
  Fe  Fe17  1  0.49610800  0.15594300  0.82320400  1
  Fe  Fe18  1  0.49392900  0.83347900  0.17609100  1
  Fe  Fe19  1  0.31137800  0.60977200  0.83913000  1
  Fe  Fe20  1  0.81003500  0.11047900  0.84192000  1
  Fe  Fe21  1  0.49691500  0.99911700  0.00018800  1
  Fe  Fe22  1  0.80866700  0.76853600  0.15850800  1
  Fe  Fe23  1  0.98510800  0.68322600  0.33564300  1
  Fe  Fe24  1  0.48440900  0.18368800  0.33441600  1
  Fe  Fe25  1  0.48569600  0.34790800  0.66398800  1
  Fe  Fe26  1  0.98531600  0.84669500  0.66625400  1
  Fe  Fe27  1  0.75026700  0.08691200  0.17198900  1
  Fe  Fe28  1  0.74968600  0.24979400  0.49968200  1
  Fe  Fe29  1  0.75572600  0.41520900  0.82429100  1
  Fe  Fe30  1  0.69157500  0.73257000  0.84356200  1
  Si  Si0  1  0.19896700  0.05087600  0.49417900  1
  Si  Si1  1  0.69487200  0.55464800  0.50028700  1
  Si  Si2  1  0.19287600  0.88864400  0.16599600  1
  Si  Si3  1  0.80629200  0.94519100  0.50010500  1
  Si  Si4  1  0.30278900  0.44305300  0.49881200  1
  O  O0  1  0.11811400  0.21449800  0.16971000  1
  O  O1  1  0.11961300  0.37526600  0.00867300  1
  O  O2  1  0.11527000  0.55786000  0.33606500  1
  O  O3  1  0.12074800  0.72099300  0.65446900  1
  O  O4  1  0.36306700  0.61301600  0.49830400  1
  O  O5  1  0.12296100  0.03572200  0.83463100  1
  O  O6  1  0.13255600  0.72151200  0.16769500  1
  O  O7  1  0.62283900  0.20039900  0.16720500  1
  O  O8  1  0.38286300  0.46709400  0.16155500  1
  O  O9  1  0.13576300  0.88269000  0.49570500  1
  O  O10  1  0.63910000  0.68469000  0.64949400  1
  O  O11  1  0.13958900  0.17947700  0.63884200  1
  O  O12  1  0.38538100  0.94454200  0.66027200  1
  O  O13  1  0.38591300  0.62777700  0.00643500  1
  O  O14  1  0.14703300  0.02034000  0.33310500  1
  O  O15  1  0.38495200  0.78293100  0.33932200  1
  O  O16  1  0.63961800  0.53474800  0.34982600  1
  O  O17  1  0.38167000  0.12691800  0.99100600  1
  O  O18  1  0.87317100  0.13484500  0.01715100  1
  O  O19  1  0.36676900  0.11803000  0.49669200  1
  O  O20  1  0.86405200  0.61805700  0.50046600  1
  O  O21  1  0.11972900  0.53929300  0.83263600  1
  O  O22  1  0.61691000  0.04398800  0.83147600  1
  O  O23  1  0.61166800  0.70307600  0.16282200  1
  O  O24  1  0.38392900  0.29584800  0.83696100  1
  O  O25  1  0.36278200  0.94628900  0.16788200  1
  O  O26  1  0.88500000  0.46152500  0.16834100  1
  O  O27  1  0.63678700  0.88166800  0.49821600  1
  O  O28  1  0.13359900  0.37846900  0.49788200  1
  O  O29  1  0.13215900  0.88494100  0.02972900  1
  O  O30  1  0.62319700  0.88269900  0.01586300  1
  O  O31  1  0.60962100  0.04593000  0.32076600  1
  O  O32  1  0.86172500  0.81551200  0.35094000  1
  O  O33  1  0.36099400  0.46245900  0.64677700  1
  O  O34  1  0.35997300  0.31463400  0.35072400  1
  O  O35  1  0.61241400  0.22414100  0.67709100  1
  O  O36  1  0.62051100  0.37211200  0.98674500  1
  O  O37  1  0.86125000  0.96402300  0.64947600  1
  O  O38  1  0.86876000  0.11362300  0.49799400  1
  O  O39  1  0.62262700  0.53414300  0.83897400  1
  O  O40  1  0.37779700  0.79797500  0.83291600  1
  O  O41  1  0.87128100  0.96646000  0.16893600  1
  O  O42  1  0.87215500  0.29776700  0.83274400  1
  O  O43  1  0.63213400  0.38573400  0.50083600  1
  O  O44  1  0.88055400  0.44277900  0.66854600  1
  O  O45  1  0.86821600  0.61441100  0.99208600  1
  O  O46  1  0.88410800  0.27657500  0.32286300  1
  O  O47  1  0.88320000  0.79423100  0.83608400  1
loop_
_geom_bond_atom_site_label_1
_geom_bond_atom_site_label_2
_geom_bond_distance
_geom_bond_site_symmetry_2
Fe0 O0 2.042872 1_555
Fe0 O1 2.054944 1_555
Fe0 O46 2.068932 1_455
Fe0 O26 2.069735 1_455
Fe0 O2 2.107351 1_555
Fe0 O18 2.108071 1_455
Fe1 O21 2.087339 1_555
Fe1 O26 2.120762 1_456
Fe1 O45 2.124838 1_455
Fe1 O42 2.142241 1_455
Fe1 O1 2.146333 1_556
Fe1 O6 2.212251 1_556
Fe2 O17 1.895371 1_554
Fe2 O0 1.895850 1_555
Fe2 O8 1.906837 1_555
Fe2 O34 1.966673 1_555
Fe3 O2 2.127456 1_555
Fe3 O8 2.142088 1_555
Fe3 O1 2.146033 1_555
Fe3 O15 2.153162 1_555
Fe3 O6 2.153636 1_555
Fe3 O13 2.156184 1_555
Fe4 O3 1.980038 1_555
Fe4 O12 2.098537 1_555
Fe4 O2 2.110222 1_555
Fe4 O15 2.124317 1_555
Fe4 O4 2.129154 1_555
Fe4 O9 2.140035 1_555
Fe5 O40 2.101910 1_555
Fe5 O5 2.103428 1_565
Fe5 O17 2.151992 1_565
Fe5 O3 2.153708 1_555
Fe5 O12 2.200847 1_555
Fe5 O29 2.316202 1_556
Fe6 O41 2.130276 1_445
Fe6 O0 2.132205 1_555
Fe6 O28 2.190309 1_555
Fe6 O38 2.204868 1_455
Fe6 O46 2.213780 1_455
Fe6 O14 2.269929 1_555
Fe7 O47 2.114479 1_444
Fe7 O0 2.116084 1_555
Fe7 O5 2.116575 1_554
Fe7 O41 2.116958 1_445
Fe7 O18 2.198079 1_455
Fe7 O29 2.220809 1_545
Fe8 O8 2.027075 1_556
Fe8 O39 2.043816 1_555
Fe8 O24 2.048000 1_555
Fe8 O36 2.054496 1_555
Fe8 O13 2.058629 1_556
Fe8 O23 2.062235 1_556
Fe9 O21 2.132968 1_555
Fe9 O42 2.148599 1_455
Fe9 O11 2.157984 1_555
Fe9 O44 2.195828 1_455
Fe9 O28 2.209949 1_555
Fe9 O38 2.216054 1_455
Fe10 O40 2.122347 1_555
Fe10 O10 2.131964 1_555
Fe10 O22 2.139347 1_565
Fe10 O12 2.218584 1_555
Fe10 O27 2.234469 1_555
Fe10 O4 2.256699 1_555
Fe11 O16 2.134470 1_555
Fe11 O8 2.134834 1_555
Fe11 O23 2.154721 1_555
Fe11 O27 2.199528 1_555
Fe11 O4 2.209596 1_555
Fe11 O15 2.211934 1_555
Fe12 O5 1.876074 1_555
Fe12 O1 1.911956 1_556
Fe12 O24 1.935436 1_555
Fe12 O11 1.998613 1_555
Fe13 O7 1.901509 1_555
Fe13 O26 1.906341 1_555
Fe13 O36 1.957565 1_554
Fe13 O16 1.960019 1_555
Fe14 O47 2.093579 1_455
Fe14 O21 2.095279 1_555
Fe14 O45 2.175723 1_455
Fe14 O44 2.194205 1_455
Fe14 O3 2.255466 1_555
Fe14 O29 2.335222 1_556
Fe15 O3 2.139021 1_655
Fe15 O20 2.158281 1_555
Fe15 O2 2.169382 1_655
Fe15 O44 2.183270 1_555
Fe15 O28 2.187300 1_655
Fe15 O46 2.209767 1_555
Fe16 O12 2.128905 1_545
Fe16 O15 2.135802 1_545
Fe16 O27 2.155663 1_545
Fe16 O19 2.184385 1_555
Fe16 O35 2.186749 1_555
Fe16 O31 2.187709 1_555
Fe17 O22 2.026498 1_555
Fe17 O17 2.051297 1_555
Fe17 O35 2.051455 1_555
Fe17 O12 2.079691 1_545
Fe17 O24 2.104294 1_555
Fe17 O36 2.155472 1_555
Fe18 O31 2.035354 1_565
Fe18 O23 2.068950 1_555
Fe18 O13 2.073177 1_555
Fe18 O15 2.085848 1_555
Fe18 O25 2.123337 1_555
Fe18 O30 2.131814 1_555
Fe19 O40 1.878866 1_555
Fe19 O21 1.880077 1_555
Fe19 O13 1.940476 1_556
Fe19 O33 1.960506 1_555
Fe20 O42 1.885693 1_555
Fe20 O22 1.896445 1_555
Fe20 O18 1.929125 1_556
Fe20 O37 1.963873 1_545
Fe21 O40 2.084829 1_554
Fe21 O7 2.113095 1_565
Fe21 O17 2.121031 1_564
Fe21 O30 2.146154 1_555
Fe21 O22 2.147705 1_564
Fe21 O25 2.231905 1_555
Fe22 O45 1.890560 1_554
Fe22 O41 1.894716 1_555
Fe22 O23 1.932094 1_555
Fe22 O32 1.961915 1_555
Fe23 O26 2.117351 1_555
Fe23 O32 2.125398 1_555
Fe23 O2 2.186419 1_655
Fe23 O9 2.196635 1_655
Fe23 O20 2.215702 1_555
Fe23 O6 2.239314 1_655
Fe24 O7 2.118884 1_555
Fe24 O34 2.119286 1_555
Fe24 O19 2.184028 1_555
Fe24 O31 2.194039 1_555
Fe24 O43 2.218260 1_555
Fe24 O25 2.264184 1_545
Fe25 O33 2.124240 1_555
Fe25 O39 2.157064 1_555
Fe25 O24 2.160743 1_555
Fe25 O43 2.194222 1_555
Fe25 O35 2.200380 1_555
Fe25 O19 2.217800 1_555
Fe26 O5 2.133767 1_665
Fe26 O47 2.134678 1_555
Fe26 O37 2.140400 1_555
Fe26 O3 2.186937 1_655
Fe26 O20 2.213813 1_555
Fe26 O9 2.267863 1_655
Fe27 O46 2.033605 1_555
Fe27 O41 2.051527 1_545
Fe27 O18 2.053023 1_555
Fe27 O31 2.061316 1_555
Fe27 O7 2.081386 1_555
Fe27 O30 2.082535 1_545
Fe28 O44 2.114882 1_555
Fe28 O43 2.164976 1_555
Fe28 O38 2.177260 1_555
Fe28 O46 2.208199 1_555
Fe28 O35 2.222936 1_555
Fe28 O31 2.245579 1_555
Fe29 O44 1.989416 1_555
Fe29 O42 2.036966 1_555
Fe29 O45 2.053035 1_555
Fe29 O35 2.072714 1_555
Fe29 O39 2.100384 1_555
Fe29 O36 2.152043 1_555
Fe30 O47 1.880293 1_555
Fe30 O39 1.926065 1_555
Fe30 O30 1.942510 1_556
Fe30 O10 1.972773 1_555
O4 Si4 1.671153 1_555
O6 Si2 1.649388 1_555
O9 Si0 1.659572 1_565
O10 Si1 1.665138 1_555
O11 Si0 1.653798 1_555
O14 Si0 1.708449 1_555
O14 Si2 1.728369 1_545
O16 Si1 1.666331 1_555
O19 Si0 1.647936 1_555
O20 Si1 1.659876 1_555
O25 Si2 1.666064 1_555
O27 Si3 1.662830 1_555
O28 Si4 1.660297 1_555
O29 Si2 1.639463 1_555
O32 Si3 1.661489 1_555
O33 Si4 1.658516 1_555
O34 Si4 1.658544 1_555
O37 Si3 1.659250 1_555
O38 Si3 1.664599 1_545
O43 Si1 1.661701 1_555
