# generated using pymatgen
data_Ba2SrI6
_symmetry_space_group_name_H-M   'P 1'
_cell_length_a   14.52274217
_cell_length_b   14.52251412
_cell_length_c   7.82212148
_cell_angle_alpha   90.00064244
_cell_angle_beta   89.99964822
_cell_angle_gamma   119.99998850
_symmetry_Int_Tables_number   1
_chemical_formula_structural   Ba2SrI6
_chemical_formula_sum   'Ba6 Sr3 I18'
_cell_volume   1428.71522573
_cell_formula_units_Z   3
loop_
 _symmetry_equiv_pos_site_id
 _symmetry_equiv_pos_as_xyz
  1  'x, y, z'
loop_
 _atom_site_type_symbol
 _atom_site_label
 _atom_site_symmetry_multiplicity
 _atom_site_fract_x
 _atom_site_fract_y
 _atom_site_fract_z
 _atom_site_occupancy
  Ba  Ba0  1  0.00000267  0.63900550  -0.00001047  1
  Ba  Ba1  1  -0.00000019  0.30468951  0.49998669  1
  Ba  Ba2  1  0.36099577  0.36099882  -0.00001086  1
  Ba  Ba3  1  0.30469052  0.00000141  0.49998889  1
  Ba  Ba4  1  0.69531184  0.69531052  0.49998902  1
  Ba  Ba5  1  0.63900250  -0.00000347  -0.00000887  1
  Sr  Sr0  1  0.33333299  0.66666673  0.49593519  1
  Sr  Sr1  1  0.00000018  0.00000034  -0.00001136  1
  Sr  Sr2  1  0.66666716  0.33333388  0.50405625  1
  I  I0  1  0.08463397  0.87075114  0.76072506  1
  I  I1  1  0.22853458  0.77517067  0.25196902  1
  I  I2  1  0.12203308  0.53796297  0.74161479  1
  I  I3  1  0.41591549  0.87795360  0.74161047  1
  I  I4  1  0.22483643  0.45337127  0.25197105  1
  I  I5  1  0.12924879  0.21388218  0.76072560  1
  I  I6  1  0.54662902  0.77144907  0.25198687  1
  I  I7  1  0.21389518  0.12924896  0.23926311  1
  I  I8  1  0.46203780  0.58407604  0.74161428  1
  I  I9  1  0.78611980  0.91536975  0.76072777  1
  I  I10  1  0.45337441  0.22484254  0.74808540  1
  I  I11  1  0.58407642  0.46202979  0.25836624  1
  I  I12  1  0.53797047  0.12204545  0.25836388  1
  I  I13  1  0.77146817  0.54662853  0.74808665  1
  I  I14  1  0.91535294  0.78610585  0.23926369  1
  I  I15  1  0.77516183  0.22853281  0.74808871  1
  I  I16  1  0.87795556  0.41592559  0.25836521  1
  I  I17  1  0.87075462  0.08464858  0.23925973  1
loop_
_geom_bond_atom_site_label_1
_geom_bond_atom_site_label_2
_geom_bond_distance
_geom_bond_site_symmetry_2
Ba0 I2 3.461070 1_554
Ba0 I16 3.461167 1_455
Ba0 I0 3.493388 1_554
Ba0 I14 3.493426 1_455
Ba0 I13 3.499314 1_454
Ba0 I1 3.499627 1_555
Ba1 I17 3.449031 1_455
Ba1 I5 3.449286 1_555
Ba1 I4 3.469486 1_555
Ba1 I15 3.469877 1_455
Ba1 I2 3.490814 1_555
Ba1 I16 3.490911 1_455
Ba2 I8 3.461127 1_554
Ba2 I11 3.461205 1_555
Ba2 I5 3.493420 1_554
Ba2 I7 3.493446 1_555
Ba2 I10 3.499274 1_554
Ba2 I4 3.499603 1_555
Ba3 I7 3.449090 1_555
Ba3 I0 3.449274 1_545
Ba3 I1 3.469382 1_545
Ba3 I10 3.469844 1_555
Ba3 I3 3.490832 1_545
Ba3 I12 3.490924 1_555
Ba4 I14 3.449072 1_555
Ba4 I9 3.449261 1_555
Ba4 I6 3.469296 1_555
Ba4 I13 3.469854 1_555
Ba4 I8 3.490862 1_555
Ba4 I11 3.490870 1_555
Ba5 I12 3.461147 1_555
Ba5 I3 3.461275 1_544
Ba5 I9 3.493372 1_544
Ba5 I17 3.493472 1_555
Ba5 I15 3.499306 1_554
Ba5 I6 3.499842 1_545
I0 Sr1 3.292963 1_566
I0 I14 4.601153 1_455
I0 I13 4.630656 1_455
I1 Sr0 3.292327 1_555
I1 I14 4.630770 1_455
I1 I3 4.637697 1_554
I2 Sr0 3.296609 1_555
I2 I4 4.637789 1_556
I3 Sr0 3.296417 1_555
I4 Sr0 3.292200 1_555
I4 I7 4.630734 1_555
I5 Sr1 3.292969 1_556
I5 I7 4.601124 1_555
I6 Sr0 3.292184 1_555
I6 I8 4.637703 1_554
I7 Sr1 3.293160 1_555
I8 Sr0 3.296570 1_555
I9 Sr1 3.292970 1_666
I10 Sr2 3.292515 1_555
I10 I5 4.630715 1_555
I10 I12 4.637250 1_556
I11 Sr2 3.296516 1_555
I11 I13 4.637235 1_554
I12 Sr2 3.296506 1_555
I13 Sr2 3.292492 1_555
I14 Sr1 3.293138 1_665
I15 Sr2 3.292560 1_555
I15 I9 4.630593 1_545
I15 I16 4.637186 1_556
I16 Sr2 3.296543 1_555
I17 Sr1 3.293106 1_655
I17 I9 4.601187 1_545
I17 I6 4.630932 1_545
