# generated using pymatgen
data_Li4TiO4
_symmetry_space_group_name_H-M   'P 1'
_cell_length_a   9.54164600
_cell_length_b   9.20675600
_cell_length_c   9.31037753
_cell_angle_alpha   89.35249631
_cell_angle_beta   90.00000000
_cell_angle_gamma   90.00000000
_symmetry_Int_Tables_number   1
_chemical_formula_structural   Li4TiO4
_chemical_formula_sum   'Li32 Ti8 O32'
_cell_volume   817.84215415
_cell_formula_units_Z   8
loop_
 _symmetry_equiv_pos_site_id
 _symmetry_equiv_pos_as_xyz
  1  'x, y, z'
loop_
 _atom_site_type_symbol
 _atom_site_label
 _atom_site_symmetry_multiplicity
 _atom_site_fract_x
 _atom_site_fract_y
 _atom_site_fract_z
 _atom_site_occupancy
  Li  Li0  1  0.13928500  0.84284100  0.39115100  1
  Li  Li1  1  0.86071500  0.84284100  0.89115100  1
  Li  Li2  1  0.39772200  0.78892800  0.91882500  1
  Li  Li3  1  0.60227800  0.78892800  0.41882500  1
  Li  Li4  1  0.88881800  0.63394400  0.09645200  1
  Li  Li5  1  0.11118200  0.63394400  0.59645200  1
  Li  Li6  1  0.11865500  0.64803600  0.85394700  1
  Li  Li7  1  0.88134500  0.64803600  0.35394700  1
  Li  Li8  1  0.35098700  0.64579900  0.32067600  1
  Li  Li9  1  0.64901300  0.64579900  0.82067600  1
  Li  Li10  1  0.14299900  0.59695800  0.12721900  1
  Li  Li11  1  0.85700100  0.59695800  0.62721900  1
  Li  Li12  1  0.64061300  0.44817600  0.38163000  1
  Li  Li13  1  0.35938700  0.44817600  0.88163000  1
  Li  Li14  1  0.16027400  0.35534300  0.68152600  1
  Li  Li15  1  0.83972600  0.35534300  0.18152600  1
  Li  Li16  1  0.60012400  0.36941900  0.63371800  1
  Li  Li17  1  0.39987600  0.36941900  0.13371800  1
  Li  Li18  1  0.62294700  0.35726300  0.90574800  1
  Li  Li19  1  0.37705300  0.35726300  0.40574800  1
  Li  Li20  1  0.13319500  0.33584200  0.10295400  1
  Li  Li21  1  0.86680500  0.33584200  0.60295400  1
  Li  Li22  1  0.64467500  0.09287600  0.08031300  1
  Li  Li23  1  0.35532500  0.09287600  0.58031300  1
  Li  Li24  1  0.87926800  0.13019800  0.39907300  1
  Li  Li25  1  0.12073200  0.13019800  0.89907300  1
  Li  Li26  1  0.09957200  0.10224500  0.63846600  1
  Li  Li27  1  0.90042800  0.10224500  0.13846600  1
  Li  Li28  1  0.61609900  0.05433500  0.68186800  1
  Li  Li29  1  0.38390100  0.05433500  0.18186800  1
  Li  Li30  1  0.12965200  0.09988900  0.35964300  1
  Li  Li31  1  0.87034800  0.09988900  0.85964300  1
  Ti  Ti0  1  0.11010000  0.87193700  0.10615200  1
  Ti  Ti1  1  0.88990000  0.87193700  0.60615200  1
  Ti  Ti2  1  0.62174000  0.62172400  0.11953200  1
  Ti  Ti3  1  0.37826000  0.62172400  0.61953200  1
  Ti  Ti4  1  0.10251400  0.37932200  0.38405300  1
  Ti  Ti5  1  0.89748600  0.37932200  0.88405300  1
  Ti  Ti6  1  0.61313700  0.14527000  0.38048200  1
  Ti  Ti7  1  0.38686300  0.14527000  0.88048200  1
  O  O0  1  0.00922600  0.99236600  0.49560100  1
  O  O1  1  0.99077400  0.99236600  0.99560100  1
  O  O2  1  0.20978700  0.97621500  0.23489100  1
  O  O3  1  0.79021300  0.97621500  0.73489100  1
  O  O4  1  0.21539700  0.74620800  0.00123400  1
  O  O5  1  0.78460300  0.74620800  0.50123400  1
  O  O6  1  0.01951200  0.73703200  0.22018300  1
  O  O7  1  0.98048800  0.73703200  0.72018300  1
  O  O8  1  0.51624400  0.71936200  0.24443400  1
  O  O9  1  0.48375600  0.71936200  0.74443400  1
  O  O10  1  0.73655300  0.71847300  0.99164600  1
  O  O11  1  0.26344700  0.71847300  0.49164600  1
  O  O12  1  0.75854600  0.52610500  0.23109000  1
  O  O13  1  0.24145400  0.52610500  0.73109000  1
  O  O14  1  0.48553600  0.49432000  0.50963300  1
  O  O15  1  0.51446400  0.49432000  0.00963300  1
  O  O16  1  0.00852100  0.48613600  0.00342800  1
  O  O17  1  0.99147900  0.48613600  0.50342800  1
  O  O18  1  0.23260700  0.46183600  0.26066600  1
  O  O19  1  0.76739300  0.46183600  0.76066600  1
  O  O20  1  0.20451400  0.25335100  0.49591300  1
  O  O21  1  0.79548600  0.25335100  0.99591300  1
  O  O22  1  0.00391400  0.25502600  0.26829900  1
  O  O23  1  0.99608600  0.25502600  0.76829900  1
  O  O24  1  0.48438800  0.24636500  0.27343900  1
  O  O25  1  0.51561200  0.24636500  0.77343900  1
  O  O26  1  0.72231400  0.27001100  0.48782200  1
  O  O27  1  0.27768600  0.27001100  0.98782200  1
  O  O28  1  0.74356300  0.06904200  0.25898800  1
  O  O29  1  0.25643700  0.06904200  0.75898800  1
  O  O30  1  0.47631800  0.02080900  0.00277900  1
  O  O31  1  0.52368200  0.02080900  0.50277900  1
loop_
_geom_bond_atom_site_label_1
_geom_bond_atom_site_label_2
_geom_bond_distance
_geom_bond_site_symmetry_2
Li0 O11 1.888344 1_555
Li0 O2 2.009118 1_555
Li0 O0 2.100266 1_555
Li0 O6 2.196326 1_555
Li0 Li30 2.383171 1_565
Li1 O10 1.888344 1_555
Li1 O3 2.009118 1_555
Li1 O1 2.100266 1_555
Li1 O7 2.196326 1_555
Li1 Li31 2.383171 1_565
Li2 O9 1.934897 1_555
Li2 O4 1.939858 1_556
Li2 O30 2.401825 1_566
Li3 O8 1.934897 1_555
Li3 O5 1.939858 1_555
Li3 O31 2.401825 1_565
Li4 O10 1.910875 1_554
Li4 O6 1.951327 1_655
Li4 O16 1.983217 1_655
Li4 O12 2.018422 1_555
Li4 Li7 2.403405 1_555
Li5 O11 1.910875 1_555
Li5 O7 1.951327 1_455
Li5 O17 1.983217 1_455
Li5 O13 2.018422 1_555
Li5 Li6 2.403405 1_555
Li6 O4 1.891423 1_556
Li6 O7 1.984268 1_455
Li6 O13 1.992612 1_555
Li6 O16 2.283884 1_556
Li7 O5 1.891423 1_555
Li7 O6 1.984268 1_655
Li7 O12 1.992612 1_555
Li7 O17 2.283884 1_555
Li8 O8 1.854208 1_555
Li8 O11 1.924384 1_555
Li8 O18 2.116138 1_555
Li8 O14 2.575409 1_555
Li9 O9 1.854208 1_555
Li9 O10 1.924384 1_555
Li9 O19 2.116138 1_555
Li9 O15 2.575409 1_556
Li10 O4 1.924785 1_555
Li10 O18 1.946122 1_555
Li10 O6 1.955972 1_555
Li10 O16 2.010576 1_555
Li10 Li20 2.418973 1_555
Li11 O5 1.924785 1_555
Li11 O19 1.946122 1_555
Li11 O7 1.955972 1_555
Li11 O17 2.010576 1_555
Li11 Li21 2.418973 1_555
Li12 O12 1.929436 1_555
Li12 O14 1.949793 1_555
Li12 O26 2.058937 1_555
Li12 O24 2.594461 1_555
Li13 O13 1.929436 1_555
Li13 O15 1.949793 1_556
Li13 O27 2.058937 1_555
Li13 O25 2.594461 1_555
Li14 O13 1.816875 1_555
Li14 O23 1.985738 1_455
Li14 O20 2.020653 1_555
Li15 O12 1.816875 1_555
Li15 O22 1.985738 1_655
Li15 O21 2.020653 1_554
Li16 O25 1.895441 1_555
Li16 O14 1.955101 1_555
Li16 O26 2.017461 1_555
Li16 O19 2.165859 1_555
Li17 O24 1.895441 1_555
Li17 O15 1.955101 1_555
Li17 O27 2.017461 1_554
Li17 O18 2.165859 1_555
Li18 O15 1.904413 1_556
Li18 O25 1.907151 1_555
Li18 O21 2.076570 1_555
Li18 O19 2.149815 1_555
Li19 O14 1.904413 1_555
Li19 O24 1.907151 1_555
Li19 O20 2.076570 1_555
Li19 O18 2.149815 1_555
Li20 O27 1.852515 1_554
Li20 O16 2.039478 1_555
Li20 O22 2.102191 1_555
Li20 O18 2.107111 1_555
Li21 O26 1.852515 1_555
Li21 O17 2.039478 1_555
Li21 O23 2.102191 1_555
Li21 O19 2.107111 1_555
Li22 O30 1.884858 1_555
Li22 O28 1.922897 1_555
Li22 O21 2.201087 1_554
Li23 O31 1.884858 1_555
Li23 O29 1.922897 1_555
Li23 O20 2.201087 1_555
Li24 O28 1.926476 1_555
Li24 O0 1.982389 1_645
Li24 O22 2.046000 1_655
Li24 O26 2.146285 1_555
Li24 Li30 2.433646 1_655
Li24 Li27 2.451180 1_555
Li25 O29 1.926476 1_555
Li25 O1 1.982389 1_445
Li25 O23 2.046000 1_455
Li25 O27 2.146285 1_555
Li25 Li31 2.433646 1_455
Li25 Li26 2.451180 1_555
Li26 O0 1.888432 1_545
Li26 O29 1.893430 1_555
Li26 O23 2.110260 1_455
Li26 O20 2.158206 1_555
Li27 O1 1.888432 1_544
Li27 O28 1.893430 1_555
Li27 O22 2.110260 1_655
Li27 O21 2.158206 1_554
Li28 O3 1.874301 1_545
Li28 O31 1.914334 1_555
Li28 O25 2.192254 1_555
Li29 O2 1.874301 1_545
Li29 O30 1.914334 1_555
Li29 O24 2.192254 1_555
Li30 O2 1.805570 1_545
Li30 O0 1.968324 1_545
Li30 O20 2.038790 1_555
Li30 O22 2.043347 1_555
Li31 O3 1.805570 1_545
Li31 O1 1.968324 1_545
Li31 O21 2.038790 1_555
Li31 O23 2.043347 1_555
O0 Ti1 1.886608 1_455
O1 Ti0 1.886608 1_656
O2 Ti0 1.813596 1_555
O3 Ti1 1.813596 1_555
O4 Ti0 1.824587 1_555
O5 Ti1 1.824587 1_555
O6 Ti0 1.840412 1_555
O7 Ti1 1.840412 1_555
O8 Ti2 1.788087 1_555
O9 Ti3 1.788087 1_555
O10 Ti2 1.840455 1_556
O11 Ti3 1.840455 1_555
O12 Ti2 1.880710 1_555
O13 Ti3 1.880710 1_555
O14 Ti3 1.870208 1_555
O15 Ti2 1.870208 1_555
O16 Ti5 1.830168 1_454
O17 Ti4 1.830168 1_655
O18 Ti4 1.848762 1_555
O19 Ti5 1.848762 1_555
O20 Ti4 1.830204 1_555
O21 Ti5 1.830204 1_555
O22 Ti4 1.839572 1_555
O23 Ti5 1.839572 1_555
O24 Ti6 1.829681 1_555
O25 Ti7 1.829681 1_555
O26 Ti6 1.851716 1_555
O27 Ti7 1.851716 1_555
O28 Ti6 1.827217 1_555
O29 Ti7 1.827217 1_555
O30 Ti7 1.818951 1_554
O31 Ti6 1.818951 1_555
