# generated using pymatgen
data_BaSrI4
_symmetry_space_group_name_H-M   'P 1'
_cell_length_a   11.34103200
_cell_length_b   10.93873300
_cell_length_c   21.00811906
_cell_angle_alpha   65.67825402
_cell_angle_beta   90.00000000
_cell_angle_gamma   90.00000000
_symmetry_Int_Tables_number   1
_chemical_formula_structural   BaSrI4
_chemical_formula_sum   'Ba8 Sr8 I32'
_cell_volume   2374.88667848
_cell_formula_units_Z   8
loop_
 _symmetry_equiv_pos_site_id
 _symmetry_equiv_pos_as_xyz
  1  'x, y, z'
loop_
 _atom_site_type_symbol
 _atom_site_label
 _atom_site_symmetry_multiplicity
 _atom_site_fract_x
 _atom_site_fract_y
 _atom_site_fract_z
 _atom_site_occupancy
  Ba  Ba0  1  0.97320200  0.24710100  0.15447000  1
  Ba  Ba1  1  0.72099100  0.68921400  0.13608800  1
  Ba  Ba2  1  0.47320200  0.75289900  0.34553000  1
  Ba  Ba3  1  0.22099100  0.31078600  0.36391200  1
  Ba  Ba4  1  0.77900900  0.68921400  0.63608800  1
  Ba  Ba5  1  0.52679800  0.24710100  0.65447000  1
  Ba  Ba6  1  0.27900900  0.31078600  0.86391200  1
  Ba  Ba7  1  0.02679800  0.75289900  0.84553000  1
  Sr  Sr0  1  0.44977300  0.28064300  0.08808400  1
  Sr  Sr1  1  0.17796100  0.84009700  0.08216500  1
  Sr  Sr2  1  0.94977300  0.71935700  0.41191600  1
  Sr  Sr3  1  0.67796100  0.15990300  0.41783500  1
  Sr  Sr4  1  0.32203900  0.84009700  0.58216500  1
  Sr  Sr5  1  0.05022700  0.28064300  0.58808400  1
  Sr  Sr6  1  0.82203900  0.15990300  0.91783500  1
  Sr  Sr7  1  0.55022700  0.71935700  0.91191600  1
  I  I0  1  0.45062300  0.77668200  0.04953400  1
  I  I1  1  0.21085900  0.14978800  0.05779000  1
  I  I2  1  0.68867900  0.46318200  0.04639300  1
  I  I3  1  0.88896700  0.99564400  0.09177800  1
  I  I4  1  0.99950000  0.59642700  0.10078100  1
  I  I5  1  0.55125800  0.98770300  0.18706500  1
  I  I6  1  0.26645900  0.33157500  0.19572300  1
  I  I7  1  0.24752400  0.67806000  0.24790700  1
  I  I8  1  0.74752400  0.32194000  0.25209300  1
  I  I9  1  0.76645900  0.66842500  0.30427700  1
  I  I10  1  0.05125800  0.01229700  0.31293500  1
  I  I11  1  0.49950000  0.40357300  0.39921900  1
  I  I12  1  0.38896700  0.00435600  0.40822200  1
  I  I13  1  0.71085900  0.85021200  0.44221000  1
  I  I14  1  0.18867900  0.53681800  0.45360700  1
  I  I15  1  0.95062300  0.22331800  0.45046600  1
  I  I16  1  0.04937700  0.77668200  0.54953400  1
  I  I17  1  0.81132100  0.46318200  0.54639300  1
  I  I18  1  0.28914100  0.14978800  0.55779000  1
  I  I19  1  0.61103300  0.99564400  0.59177800  1
  I  I20  1  0.50050000  0.59642700  0.60078100  1
  I  I21  1  0.94874200  0.98770300  0.68706500  1
  I  I22  1  0.23354100  0.33157500  0.69572300  1
  I  I23  1  0.25247600  0.67806000  0.74790700  1
  I  I24  1  0.75247600  0.32194000  0.75209300  1
  I  I25  1  0.73354100  0.66842500  0.80427700  1
  I  I26  1  0.44874200  0.01229700  0.81293500  1
  I  I27  1  0.00050000  0.40357300  0.89921900  1
  I  I28  1  0.11103300  0.00435600  0.90822200  1
  I  I29  1  0.31132100  0.53681800  0.95360700  1
  I  I30  1  0.78914100  0.85021200  0.94221000  1
  I  I31  1  0.54937700  0.22331800  0.95046600  1
loop_
_geom_bond_atom_site_label_1
_geom_bond_atom_site_label_2
_geom_bond_distance
_geom_bond_site_symmetry_2
Ba0 I10 3.379343 1_655
Ba0 I4 3.523122 1_555
Ba0 I8 3.579089 1_555
Ba0 I3 3.632796 1_545
Ba0 I6 3.650447 1_655
Ba0 I1 3.782032 1_655
Ba0 I2 4.090661 1_555
Ba1 I9 3.484280 1_555
Ba1 I4 3.489569 1_555
Ba1 I0 3.491506 1_555
Ba1 I3 3.627814 1_555
Ba1 I2 3.692688 1_555
Ba1 I8 3.755691 1_555
Ba1 I30 3.792062 1_554
Ba1 I5 4.288756 1_555
Ba2 I5 3.379343 1_555
Ba2 I11 3.523122 1_555
Ba2 I7 3.579089 1_555
Ba2 I12 3.632796 1_565
Ba2 I9 3.650447 1_555
Ba2 I13 3.782032 1_555
Ba2 I14 4.090661 1_555
Ba3 I6 3.484280 1_555
Ba3 I11 3.489569 1_555
Ba3 I15 3.491506 1_455
Ba3 I12 3.627814 1_555
Ba3 I14 3.692688 1_555
Ba3 I7 3.755691 1_555
Ba3 I18 3.792062 1_555
Ba3 I10 4.288756 1_555
Ba4 I25 3.484280 1_555
Ba4 I20 3.489569 1_555
Ba4 I16 3.491506 1_655
Ba4 I19 3.627814 1_555
Ba4 I17 3.692688 1_555
Ba4 I24 3.755691 1_555
Ba4 I13 3.792062 1_555
Ba4 I21 4.288756 1_555
Ba5 I26 3.379343 1_555
Ba5 I20 3.523122 1_555
Ba5 I24 3.579089 1_555
Ba5 I19 3.632796 1_545
Ba5 I22 3.650447 1_555
Ba5 I18 3.782032 1_555
Ba5 I17 4.090661 1_555
Ba6 I22 3.484280 1_555
Ba6 I27 3.489569 1_555
Ba6 I31 3.491506 1_555
Ba6 I28 3.627814 1_555
Ba6 I29 3.692688 1_555
Ba6 I23 3.755691 1_555
Ba6 I1 3.792062 1_556
Ba6 I26 4.288756 1_555
Ba7 I21 3.379343 1_455
Ba7 I27 3.523122 1_555
Ba7 I23 3.579089 1_555
Ba7 I28 3.632796 1_565
Ba7 I25 3.650447 1_455
Ba7 I30 3.782032 1_455
Ba7 I29 4.090661 1_555
I0 Sr1 3.302264 1_555
I0 Sr7 3.394258 1_554
I0 I29 4.218645 1_554
I0 I7 4.487038 1_555
I0 I5 4.524638 1_555
I0 I31 4.591249 1_564
I1 Sr1 3.232417 1_545
I1 Sr0 3.247436 1_555
I1 I3 3.960805 1_445
I1 I29 4.047138 1_554
I1 I27 4.108270 1_554
I1 I6 4.182698 1_555
I1 I28 4.219366 1_554
I2 Sr0 3.264140 1_555
I2 Sr7 3.431932 1_554
I2 I8 4.000881 1_555
I2 I30 4.047138 1_554
I2 I4 4.150608 1_555
I2 I31 4.218645 1_554
I3 Sr6 3.427746 1_564
I3 Sr1 3.736419 1_655
I3 I30 4.219366 1_554
I3 I5 4.305831 1_555
I3 I9 4.637786 1_555
I4 Sr1 3.239624 1_655
I4 I6 4.096110 1_655
I4 I8 4.407292 1_555
I4 I7 4.531695 1_655
I5 Sr0 3.229255 1_565
I5 I9 4.139270 1_555
I5 I7 4.626631 1_555
I6 Sr0 3.283856 1_555
I6 I7 4.362966 1_555
I7 Sr1 3.286972 1_555
I8 Sr3 3.286972 1_555
I8 I9 4.362966 1_555
I9 Sr2 3.283856 1_555
I10 Sr2 3.229255 1_445
I10 I6 4.139270 1_555
I10 I12 4.305831 1_555
I10 I15 4.524638 1_455
I10 I8 4.626631 1_455
I11 Sr3 3.239624 1_555
I11 I9 4.096110 1_555
I11 I18 4.108270 1_555
I11 I14 4.150608 1_555
I11 I7 4.407292 1_555
I11 I8 4.531695 1_555
I12 Sr4 3.427746 1_545
I12 Sr3 3.736419 1_555
I12 I13 3.960805 1_545
I12 I18 4.219366 1_555
I12 I6 4.637786 1_555
I13 Sr3 3.232417 1_565
I13 Sr2 3.247436 1_555
I13 I17 4.047138 1_555
I13 I20 4.108270 1_555
I13 I9 4.182698 1_555
I13 I19 4.219366 1_555
I14 Sr2 3.264140 1_455
I14 Sr5 3.431932 1_555
I14 I7 4.000881 1_555
I14 I18 4.047138 1_555
I14 I16 4.218645 1_555
I15 Sr3 3.302264 1_555
I15 Sr5 3.394258 1_655
I15 I17 4.218645 1_555
I15 I8 4.487038 1_555
I15 I16 4.591249 1_645
I16 Sr4 3.302264 1_555
I16 Sr2 3.394258 1_455
I16 I23 4.487038 1_555
I16 I21 4.524638 1_455
I17 Sr5 3.264140 1_655
I17 Sr2 3.431932 1_555
I17 I24 4.000881 1_555
I17 I20 4.150608 1_555
I18 Sr4 3.232417 1_545
I18 Sr5 3.247436 1_555
I18 I19 3.960805 1_545
I18 I22 4.182698 1_555
I19 Sr3 3.427746 1_565
I19 Sr4 3.736419 1_555
I19 I21 4.305831 1_555
I19 I25 4.637786 1_555
I20 Sr4 3.239624 1_555
I20 I22 4.096110 1_555
I20 I24 4.407292 1_555
I20 I23 4.531695 1_555
I21 Sr5 3.229255 1_665
I21 I25 4.139270 1_555
I21 I23 4.626631 1_655
I22 Sr5 3.283856 1_555
I22 I26 4.139270 1_555
I22 I23 4.362966 1_555
I22 I28 4.637786 1_555
I23 Sr4 3.286972 1_555
I23 I29 4.000881 1_555
I23 I27 4.407292 1_555
I24 Sr6 3.286972 1_555
I24 I25 4.362966 1_555
I24 I31 4.487038 1_555
I24 I27 4.531695 1_655
I24 I26 4.626631 1_555
I25 Sr7 3.283856 1_555
I25 I27 4.096110 1_655
I25 I30 4.182698 1_555
I26 Sr7 3.229255 1_545
I26 I28 4.305831 1_555
I26 I31 4.524638 1_555
I27 Sr6 3.239624 1_455
I27 I29 4.150608 1_555
I28 Sr1 3.427746 1_546
I28 Sr6 3.736419 1_455
I28 I30 3.960805 1_445
I29 Sr7 3.264140 1_555
I29 Sr0 3.431932 1_556
I30 Sr6 3.232417 1_565
I30 Sr7 3.247436 1_555
I30 I4 4.108270 1_556
I31 Sr6 3.302264 1_555
I31 Sr0 3.394258 1_556
