# generated using pymatgen
data_Ni3OF5
_symmetry_space_group_name_H-M   'P 1'
_cell_length_a   5.62444589
_cell_length_b   5.62444589
_cell_length_c   7.27886050
_cell_angle_alpha   72.76545835
_cell_angle_beta   72.76545835
_cell_angle_gamma   73.00419276
_symmetry_Int_Tables_number   1
_chemical_formula_structural   Ni3OF5
_chemical_formula_sum   'Ni6 O2 F10'
_cell_volume   204.70182168
_cell_formula_units_Z   2
loop_
 _symmetry_equiv_pos_site_id
 _symmetry_equiv_pos_as_xyz
  1  'x, y, z'
loop_
 _atom_site_type_symbol
 _atom_site_label
 _atom_site_symmetry_multiplicity
 _atom_site_fract_x
 _atom_site_fract_y
 _atom_site_fract_z
 _atom_site_occupancy
  Ni  Ni0  1  0.50000000  0.50000000  0.00000000  1
  Ni  Ni1  1  0.50000000  0.50000000  0.50000000  1
  Ni  Ni2  1  0.15935200  0.15935200  0.83734600  1
  Ni  Ni3  1  0.16293300  0.16293300  0.32787100  1
  Ni  Ni4  1  0.83706700  0.83706700  0.67212900  1
  Ni  Ni5  1  0.84064800  0.84064800  0.16265400  1
  O  O0  1  0.06664600  0.06664600  0.13055700  1
  O  O1  1  0.93335400  0.93335400  0.86944300  1
  F  F0  1  0.46938200  0.86060000  0.83289800  1
  F  F1  1  0.80181200  0.19818800  0.50000000  1
  F  F2  1  0.73501400  0.73501400  0.46547600  1
  F  F3  1  0.39519100  0.39519100  0.79817000  1
  F  F4  1  0.60480900  0.60480900  0.20183000  1
  F  F5  1  0.26498600  0.26498600  0.53452400  1
  F  F6  1  0.53061800  0.13940000  0.16710200  1
  F  F7  1  0.19818800  0.80181200  0.50000000  1
  F  F8  1  0.86060000  0.46938200  0.83289800  1
  F  F9  1  0.13940000  0.53061800  0.16710200  1
loop_
_geom_bond_atom_site_label_1
_geom_bond_atom_site_label_2
_geom_bond_distance
_geom_bond_site_symmetry_2
Ni2 O1 1.969430 1_445
Ni2 O0 1.984647 1_556
Ni3 O0 1.934571 1_555
Ni4 O1 1.934571 1_555
Ni5 O0 1.969430 1_665
Ni5 O1 1.984647 1_554
F0 Ni0 2.020074 1_556
F0 Ni2 2.037407 1_565
F0 Ni4 2.039945 1_555
F0 F2 2.831664 1_555
F1 Ni1 2.019553 1_555
F1 Ni4 2.034279 1_545
F1 Ni3 2.034279 1_655
F1 F5 2.829642 1_655
F1 F2 2.829642 1_545
F2 Ni4 2.034059 1_555
F2 Ni1 2.045813 1_555
F2 Ni5 2.053973 1_555
F2 F7 2.829642 1_655
F2 F8 2.831664 1_555
F3 Ni0 2.020578 1_556
F3 Ni1 2.022933 1_555
F3 Ni2 2.044667 1_555
F4 Ni0 2.020578 1_555
F4 Ni1 2.022933 1_555
F4 Ni5 2.044667 1_555
F5 Ni3 2.034059 1_555
F5 Ni1 2.045813 1_555
F5 Ni2 2.053973 1_555
F5 F7 2.829642 1_545
F5 F6 2.831664 1_555
F5 F9 2.831664 1_555
F6 Ni0 2.020074 1_555
F6 Ni5 2.037407 1_545
F6 Ni3 2.039945 1_555
F7 Ni1 2.019553 1_555
F7 Ni4 2.034279 1_455
F7 Ni3 2.034279 1_565
F8 Ni0 2.020074 1_556
F8 Ni2 2.037407 1_655
F8 Ni4 2.039945 1_555
F9 Ni0 2.020074 1_555
F9 Ni5 2.037407 1_455
F9 Ni3 2.039945 1_555
