# generated using pymatgen
data_Rb3YF6
_symmetry_space_group_name_H-M   'P 1'
_cell_length_a   6.99979495
_cell_length_b   6.99979495
_cell_length_c   6.99979495
_cell_angle_alpha   92.89256810
_cell_angle_beta   118.34426531
_cell_angle_gamma   118.34426531
_symmetry_Int_Tables_number   1
_chemical_formula_structural   Rb3YF6
_chemical_formula_sum   'Rb3 Y1 F6'
_cell_volume   248.24341462
_cell_formula_units_Z   1
loop_
 _symmetry_equiv_pos_site_id
 _symmetry_equiv_pos_as_xyz
  1  'x, y, z'
loop_
 _atom_site_type_symbol
 _atom_site_label
 _atom_site_symmetry_multiplicity
 _atom_site_fract_x
 _atom_site_fract_y
 _atom_site_fract_z
 _atom_site_occupancy
  Rb  Rb0  1  0.50000000  0.25000000  0.75000000  1
  Rb  Rb1  1  0.50000000  0.75000000  0.25000000  1
  Rb  Rb2  1  0.00000000  0.50000000  0.50000000  1
  Y  Y0  1  0.00000000  0.00000000  0.00000000  1
  F  F0  1  0.69613100  0.69613100  0.00000000  1
  F  F1  1  0.69613100  0.00000000  0.69613100  1
  F  F2  1  0.30386900  0.00000000  0.30386900  1
  F  F3  1  0.30386900  0.30386900  0.00000000  1
  F  F4  1  0.00000000  0.76962200  0.76962200  1
  F  F5  1  0.00000000  0.23037800  0.23037800  1
loop_
_geom_bond_atom_site_label_1
_geom_bond_atom_site_label_2
_geom_bond_distance
_geom_bond_site_symmetry_2
F0 Y0 2.180029 1_665
F0 Rb1 2.792038 1_555
F0 Rb0 2.792038 1_554
F0 F3 2.814181 1_555
F1 Y0 2.180029 1_656
F1 Rb1 2.792038 1_545
F1 Rb0 2.792038 1_555
F1 F2 2.814181 1_555
F2 Y0 2.180029 1_555
F2 Rb1 2.792038 1_545
F2 Rb0 2.792038 1_555
F3 Y0 2.180029 1_555
F3 Rb0 2.792038 1_554
F3 Rb1 2.792038 1_555
F4 Y0 2.222272 1_566
F4 Rb2 2.600827 1_555
F4 Rb0 3.592109 1_455
F4 Rb1 3.592109 1_455
F4 Rb1 3.592109 1_556
F4 Rb0 3.592109 1_565
F5 Y0 2.222272 1_555
F5 Rb2 2.600827 1_555
F5 Rb1 3.592109 1_445
F5 Rb0 3.592109 1_555
F5 Rb1 3.592109 1_555
F5 Rb0 3.592109 1_454
