# generated using pymatgen
data_LiVF4
_symmetry_space_group_name_H-M   'P 1'
_cell_length_a   7.55590800
_cell_length_b   7.69373300
_cell_length_c   10.60456400
_cell_angle_alpha   90.00000000
_cell_angle_beta   90.00000000
_cell_angle_gamma   90.00000000
_symmetry_Int_Tables_number   1
_chemical_formula_structural   LiVF4
_chemical_formula_sum   'Li8 V8 F32'
_cell_volume   616.47659013
_cell_formula_units_Z   8
loop_
 _symmetry_equiv_pos_site_id
 _symmetry_equiv_pos_as_xyz
  1  'x, y, z'
loop_
 _atom_site_type_symbol
 _atom_site_label
 _atom_site_symmetry_multiplicity
 _atom_site_fract_x
 _atom_site_fract_y
 _atom_site_fract_z
 _atom_site_occupancy
  Li  Li0  1  0.50000000  0.26530400  0.26623300  1
  Li  Li1  1  0.50000000  0.04682500  0.75678600  1
  Li  Li2  1  0.50000000  0.85097500  0.25756200  1
  Li  Li3  1  0.50000000  0.58948700  0.76203300  1
  Li  Li4  1  0.00000000  0.08948700  0.23796700  1
  Li  Li5  1  0.00000000  0.35097500  0.74243800  1
  Li  Li6  1  0.00000000  0.54682500  0.24321400  1
  Li  Li7  1  0.00000000  0.76530400  0.73376700  1
  V  V0  1  0.74766600  0.49225900  0.50418800  1
  V  V1  1  0.75036400  0.73801900  0.00410500  1
  V  V2  1  0.74963600  0.23801900  0.99589500  1
  V  V3  1  0.75233400  0.99225900  0.49581200  1
  V  V4  1  0.24766600  0.99225900  0.49581200  1
  V  V5  1  0.25036400  0.23801900  0.99589500  1
  V  V6  1  0.24963600  0.73801900  0.00410500  1
  V  V7  1  0.25233400  0.49225900  0.50418800  1
  F  F0  1  0.50000000  0.20288400  0.07096300  1
  F  F1  1  0.50000000  0.02946400  0.56845300  1
  F  F2  1  0.50000000  0.78584700  0.07722000  1
  F  F3  1  0.50000000  0.47302800  0.58473000  1
  F  F4  1  0.66773500  0.75764600  0.83503400  1
  F  F5  1  0.67138100  0.43695700  0.33987200  1
  F  F6  1  0.67151400  0.02161900  0.32480000  1
  F  F7  1  0.67969300  0.20075800  0.82562000  1
  F  F8  1  0.69382900  0.48678100  0.98677300  1
  F  F9  1  0.69534600  0.74024400  0.47593900  1
  F  F10  1  0.80465400  0.24024400  0.52406100  1
  F  F11  1  0.80617100  0.98678100  0.01322700  1
  F  F12  1  0.82030700  0.70075800  0.17438000  1
  F  F13  1  0.82848600  0.52161900  0.67520000  1
  F  F14  1  0.82861900  0.93695700  0.66012800  1
  F  F15  1  0.83226500  0.25764600  0.16496600  1
  F  F16  1  0.00000000  0.28584700  0.92278000  1
  F  F17  1  0.00000000  0.52946400  0.43154700  1
  F  F18  1  0.00000000  0.97302800  0.41527000  1
  F  F19  1  0.00000000  0.70288400  0.92903700  1
  F  F20  1  0.16773500  0.25764600  0.16496600  1
  F  F21  1  0.17138100  0.93695700  0.66012800  1
  F  F22  1  0.17151400  0.52161900  0.67520000  1
  F  F23  1  0.17969300  0.70075800  0.17438000  1
  F  F24  1  0.19382900  0.98678100  0.01322700  1
  F  F25  1  0.19534600  0.24024400  0.52406100  1
  F  F26  1  0.30465400  0.74024400  0.47593900  1
  F  F27  1  0.30617100  0.48678100  0.98677300  1
  F  F28  1  0.32030700  0.20075800  0.82562000  1
  F  F29  1  0.32848600  0.02161900  0.32480000  1
  F  F30  1  0.32861900  0.43695700  0.33987200  1
  F  F31  1  0.33226500  0.75764600  0.83503400  1
loop_
_geom_bond_atom_site_label_1
_geom_bond_atom_site_label_2
_geom_bond_distance
_geom_bond_site_symmetry_2
F0 V2 2.065101 1_554
F0 V5 2.065101 1_554
F0 Li0 2.125712 1_555
F0 F8 2.777203 1_554
F0 F27 2.777203 1_554
F1 Li1 2.001651 1_555
F1 V3 2.076177 1_545
F1 V4 2.076177 1_545
F2 Li2 1.977002 1_555
F2 V1 2.077308 1_555
F2 V6 2.077308 1_555
F3 V0 2.062358 1_555
F3 V7 2.062358 1_555
F3 Li3 2.082800 1_555
F3 F9 2.781417 1_555
F4 V1 1.904515 1_556
F4 Li3 1.969624 1_555
F4 F8 2.640277 1_555
F4 Li1 2.691626 1_565
F4 Li7 2.731235 1_655
F5 V0 1.884032 1_555
F5 Li0 2.007688 1_555
F5 F9 2.749480 1_555
F6 V3 1.926850 1_545
F6 Li2 1.977767 1_545
F6 Li0 2.362258 1_555
F6 Li4 2.698322 1_655
F7 V2 1.903156 1_555
F7 Li1 1.943943 1_555
F8 V2 1.962195 1_555
F8 V1 1.988111 1_556
F9 V0 1.971350 1_555
F9 V3 1.997323 1_555
F10 V3 1.971350 1_545
F10 V0 1.997323 1_555
F10 F5 2.668288 1_555
F10 F14 2.749480 1_545
F10 F18 2.781417 1_645
F11 V1 1.962195 1_555
F11 V2 1.988111 1_564
F11 F15 2.640277 1_565
F11 F19 2.777203 1_654
F12 V1 1.903156 1_555
F12 Li6 1.943943 1_655
F13 V0 1.926850 1_555
F13 Li5 1.977767 1_655
F13 Li7 2.362258 1_655
F13 Li3 2.698322 1_555
F14 V3 1.884032 1_555
F14 Li7 2.007688 1_655
F14 F21 2.589878 1_655
F14 F4 2.611752 1_555
F14 F9 2.668288 1_555
F15 V2 1.904515 1_554
F15 Li4 1.969624 1_655
F15 F20 2.534780 1_655
F15 F5 2.611752 1_555
F15 Li6 2.691626 1_655
F15 Li0 2.731235 1_555
F16 Li5 1.977002 1_555
F16 V5 2.077308 1_555
F16 V2 2.077308 1_455
F17 Li6 2.001651 1_555
F17 V7 2.076177 1_555
F17 V0 2.076177 1_455
F18 V4 2.062358 1_555
F18 V3 2.062358 1_455
F18 Li4 2.082800 1_565
F18 F25 2.781417 1_565
F19 V6 2.065101 1_556
F19 V1 2.065101 1_456
F19 Li7 2.125712 1_555
F19 F24 2.777203 1_556
F20 V5 1.904515 1_554
F20 Li4 1.969624 1_555
F20 F30 2.611752 1_555
F20 F24 2.640277 1_545
F20 Li6 2.691626 1_555
F20 Li0 2.731235 1_555
F21 V4 1.884032 1_555
F21 Li7 2.007688 1_555
F21 F31 2.611752 1_555
F21 F26 2.668288 1_555
F21 F25 2.749480 1_565
F22 V7 1.926850 1_555
F22 Li5 1.977767 1_555
F22 Li7 2.362258 1_555
F22 Li3 2.698322 1_555
F23 V6 1.903156 1_555
F23 Li6 1.943943 1_555
F24 V6 1.962195 1_555
F24 V5 1.988111 1_564
F25 V4 1.971350 1_545
F25 V7 1.997323 1_555
F25 F30 2.668288 1_555
F26 V7 1.971350 1_555
F26 V4 1.997323 1_555
F26 F30 2.749480 1_555
F26 F3 2.781417 1_555
F27 V5 1.962195 1_555
F27 V6 1.988111 1_556
F27 F31 2.640277 1_555
F28 V5 1.903156 1_555
F28 Li1 1.943943 1_555
F29 V4 1.926850 1_545
F29 Li2 1.977767 1_545
F29 Li0 2.362258 1_555
F29 Li4 2.698322 1_555
F30 V7 1.884032 1_555
F30 Li0 2.007688 1_555
F30 F5 2.589878 1_555
F31 V6 1.904515 1_556
F31 Li3 1.969624 1_555
F31 F4 2.534780 1_555
F31 Li1 2.691626 1_565
F31 Li7 2.731235 1_555
