# generated using pymatgen
data_Li3Mn(CoO2)4
_symmetry_space_group_name_H-M   'P 1'
_cell_length_a   5.93837280
_cell_length_b   5.93837280
_cell_length_c   6.00929375
_cell_angle_alpha   59.56047007
_cell_angle_beta   59.56047007
_cell_angle_gamma   60.06591221
_symmetry_Int_Tables_number   1
_chemical_formula_structural   Li3Mn(CoO2)4
_chemical_formula_sum   'Li3 Mn1 Co4 O8'
_cell_volume   148.91515035
_cell_formula_units_Z   1
loop_
 _symmetry_equiv_pos_site_id
 _symmetry_equiv_pos_as_xyz
  1  'x, y, z'
loop_
 _atom_site_type_symbol
 _atom_site_label
 _atom_site_symmetry_multiplicity
 _atom_site_fract_x
 _atom_site_fract_y
 _atom_site_fract_z
 _atom_site_occupancy
  Li  Li0  1  0.00000000  0.50000000  0.50000000  1
  Li  Li1  1  0.00000000  0.00000000  0.50000000  1
  Li  Li2  1  0.50000000  0.00000000  0.50000000  1
  Mn  Mn0  1  0.50000000  0.50000000  0.00000000  1
  Co  Co0  1  0.50000000  0.50000000  0.50000000  1
  Co  Co1  1  0.00000000  0.00000000  0.00000000  1
  Co  Co2  1  0.00000000  0.50000000  0.00000000  1
  Co  Co3  1  0.50000000  0.00000000  0.00000000  1
  O  O0  1  0.73563300  0.73563300  0.77093000  1
  O  O1  1  0.73245600  0.26685000  0.76794300  1
  O  O2  1  0.26685000  0.73245600  0.76794300  1
  O  O3  1  0.25040400  0.25040400  0.76414200  1
  O  O4  1  0.74959600  0.74959600  0.23585800  1
  O  O5  1  0.73315000  0.26754400  0.23205700  1
  O  O6  1  0.26754400  0.73315000  0.23205700  1
  O  O7  1  0.26436700  0.26436700  0.22907000  1
loop_
_geom_bond_atom_site_label_1
_geom_bond_atom_site_label_2
_geom_bond_distance
_geom_bond_site_symmetry_2
Li0 O1 2.092392 1_455
Li0 O6 2.092392 1_555
Li0 O0 2.144632 1_455
Li0 O7 2.144632 1_555
Li0 O3 2.176163 1_555
Li0 O4 2.176163 1_455
Li1 O7 2.204526 1_555
Li1 O0 2.204526 1_445
Li1 O2 2.260210 1_545
Li1 O1 2.260210 1_455
Li1 O5 2.260210 1_455
Li1 O6 2.260210 1_545
Li2 O2 2.092392 1_545
Li2 O5 2.092392 1_555
Li2 O0 2.144632 1_545
Li2 O7 2.144632 1_555
Li2 O3 2.176163 1_555
Li2 O4 2.176163 1_545
Mn0 O0 1.965068 1_554
Mn0 O7 1.965068 1_555
Mn0 O5 1.966087 1_555
Mn0 O6 1.966087 1_555
Mn0 O2 1.966087 1_554
Mn0 O1 1.966087 1_554
Co0 O4 2.082808 1_555
Co0 O3 2.082808 1_555
Co0 O2 2.121533 1_555
Co0 O1 2.121533 1_555
Co0 O5 2.121533 1_555
Co0 O6 2.121533 1_555
Co1 O3 2.089702 1_554
Co1 O4 2.089702 1_445
Co1 O5 2.114981 1_455
Co1 O6 2.114981 1_545
Co1 O2 2.114981 1_544
Co1 O1 2.114981 1_454
Co2 O4 2.051923 1_455
Co2 O3 2.051923 1_554
Co2 O2 2.086818 1_554
Co2 O5 2.086818 1_455
Co2 O7 2.088808 1_555
Co2 O0 2.088808 1_454
Co3 O4 2.051923 1_545
Co3 O3 2.051923 1_554
Co3 O1 2.086818 1_554
Co3 O6 2.086818 1_545
Co3 O7 2.088808 1_555
Co3 O0 2.088808 1_544
