# generated using pymatgen
data_Na2CuO2
_symmetry_space_group_name_H-M   'P 1'
_cell_length_a   5.70763000
_cell_length_b   8.76589200
_cell_length_c   11.49088948
_cell_angle_alpha   87.51758576
_cell_angle_beta   90.00000000
_cell_angle_gamma   90.00000000
_symmetry_Int_Tables_number   1
_chemical_formula_structural   Na2CuO2
_chemical_formula_sum   'Na16 Cu8 O16'
_cell_volume   574.37803787
_cell_formula_units_Z   8
loop_
 _symmetry_equiv_pos_site_id
 _symmetry_equiv_pos_as_xyz
  1  'x, y, z'
loop_
 _atom_site_type_symbol
 _atom_site_label
 _atom_site_symmetry_multiplicity
 _atom_site_fract_x
 _atom_site_fract_y
 _atom_site_fract_z
 _atom_site_occupancy
  Na  Na0  1  0.53065600  0.14620500  0.02512700  1
  Na  Na1  1  0.89429900  0.48586200  0.07317900  1
  Na  Na2  1  0.57361100  0.80796300  0.13405200  1
  Na  Na3  1  0.35285800  0.43585700  0.21071000  1
  Na  Na4  1  0.64963300  0.05428700  0.29201300  1
  Na  Na5  1  0.44742000  0.68505900  0.37222000  1
  Na  Na6  1  0.45025400  0.33780500  0.48555600  1
  Na  Na7  1  0.09726700  0.00902000  0.42477600  1
  Na  Na8  1  0.59726700  0.99098000  0.57522400  1
  Na  Na9  1  0.95025400  0.66219500  0.51444400  1
  Na  Na10  1  0.94742000  0.31494100  0.62778000  1
  Na  Na11  1  0.14963300  0.94571300  0.70798700  1
  Na  Na12  1  0.85285800  0.56414300  0.78929000  1
  Na  Na13  1  0.07361100  0.19203700  0.86594800  1
  Na  Na14  1  0.39429900  0.51413800  0.92682100  1
  Na  Na15  1  0.03065600  0.85379500  0.97487300  1
  Cu  Cu0  1  0.08176100  0.16669500  0.11785700  1
  Cu  Cu1  1  0.05513700  0.88617600  0.21472600  1
  Cu  Cu2  1  0.96787000  0.61276600  0.28350100  1
  Cu  Cu3  1  0.89561800  0.33498000  0.37545200  1
  Cu  Cu4  1  0.39561800  0.66502000  0.62454800  1
  Cu  Cu5  1  0.46787000  0.38723400  0.71649900  1
  Cu  Cu6  1  0.55513700  0.11382400  0.78527400  1
  Cu  Cu7  1  0.58176100  0.83330500  0.88214300  1
  O  O0  1  0.22202500  0.33341100  0.04131200  1
  O  O1  1  0.83827300  0.02152300  0.11216300  1
  O  O2  1  0.28328500  0.04621800  0.22232600  1
  O  O3  1  0.22159700  0.69980200  0.19288200  1
  O  O4  1  0.72069500  0.46279500  0.26578800  1
  O  O5  1  0.80453600  0.80624500  0.32740400  1
  O  O6  1  0.15401000  0.46966400  0.38743600  1
  O  O7  1  0.77896200  0.16832600  0.45864500  1
  O  O8  1  0.27896200  0.83167400  0.54135500  1
  O  O9  1  0.65401000  0.53033600  0.61256400  1
  O  O10  1  0.30453600  0.19375500  0.67259600  1
  O  O11  1  0.22069500  0.53720500  0.73421200  1
  O  O12  1  0.72159700  0.30019800  0.80711800  1
  O  O13  1  0.78328500  0.95378200  0.77767400  1
  O  O14  1  0.33827300  0.97847700  0.88783700  1
  O  O15  1  0.72202500  0.66658900  0.95868800  1
loop_
_geom_bond_atom_site_label_1
_geom_bond_atom_site_label_2
_geom_bond_distance
_geom_bond_site_symmetry_2
Na0 O1 2.276576 1_555
Na0 O0 2.420137 1_555
Na0 O14 2.461129 1_544
Na0 O2 2.779272 1_555
Na0 O12 2.998763 1_554
Na1 O15 2.242073 1_554
Na1 O0 2.336937 1_655
Na1 O4 2.425367 1_555
Na1 O3 3.020307 1_655
Na2 O3 2.310229 1_555
Na2 O1 2.410169 1_565
Na2 O15 2.555437 1_554
Na2 O5 2.582804 1_555
Na2 O2 2.884478 1_565
Na3 O4 2.208409 1_555
Na3 O0 2.303152 1_555
Na3 O6 2.356261 1_555
Na3 O3 2.432172 1_555
Na4 O2 2.241278 1_555
Na4 O7 2.318678 1_555
Na4 O1 2.358844 1_555
Na4 O5 2.366029 1_545
Na5 O5 2.345402 1_555
Na5 O3 2.429328 1_555
Na5 O6 2.524192 1_555
Na5 O8 2.563173 1_555
Na5 O4 2.816204 1_555
Na6 O6 2.313726 1_555
Na6 O7 2.421249 1_555
Na6 O9 2.558154 1_555
Na6 O10 2.582715 1_555
Na7 O8 2.259724 1_545
Na7 O7 2.334370 1_455
Na7 O2 2.565089 1_555
Na7 O5 2.715749 1_445
Na8 O7 2.259724 1_565
Na8 O8 2.334370 1_555
Na8 O13 2.565089 1_555
Na8 O10 2.715749 1_565
Na9 O9 2.313726 1_555
Na9 O8 2.421249 1_655
Na9 O6 2.558154 1_655
Na9 O5 2.582715 1_555
Na10 O10 2.345402 1_655
Na10 O12 2.429328 1_555
Na10 O9 2.524192 1_555
Na10 O7 2.563173 1_555
Na10 O11 2.816204 1_655
Na11 O13 2.241278 1_455
Na11 O8 2.318678 1_555
Na11 O14 2.358844 1_555
Na11 O10 2.366029 1_565
Na12 O11 2.208409 1_655
Na12 O15 2.303152 1_555
Na12 O9 2.356261 1_555
Na12 O12 2.432172 1_555
Na13 O12 2.310229 1_455
Na13 O14 2.410169 1_545
Na13 O0 2.555437 1_556
Na13 O10 2.582804 1_555
Na13 O13 2.884478 1_445
Na14 O0 2.242073 1_556
Na14 O15 2.336937 1_555
Na14 O11 2.425367 1_555
Na14 O12 3.020307 1_555
Na15 O14 2.276576 1_555
Na15 O15 2.420137 1_455
Na15 O1 2.461129 1_466
Na15 O13 2.779272 1_455
Na15 O3 2.998763 1_556
Cu0 O0 1.854440 1_555
Cu0 O1 1.887401 1_455
Cu0 O2 1.941540 1_555
Cu0 Na13 2.893934 1_554
Cu0 Na1 3.018536 1_455
Cu1 O3 1.915800 1_555
Cu1 O2 1.918875 1_565
Cu1 O5 2.033382 1_455
Cu1 O1 2.051234 1_465
Cu1 Na7 2.695981 1_565
Cu1 Na15 2.786411 1_554
Cu2 O3 1.922183 1_655
Cu2 O4 1.945037 1_555
Cu2 O6 1.999720 1_655
Cu2 O5 2.018461 1_555
Cu2 Na9 2.709205 1_555
Cu2 Na1 2.736343 1_555
Cu3 O7 1.835854 1_555
Cu3 O6 1.897887 1_655
Cu3 O4 1.928149 1_555
Cu3 Na6 2.840012 1_555
Cu3 Na10 2.912233 1_555
Cu4 O8 1.835854 1_555
Cu4 O9 1.897887 1_555
Cu4 O11 1.928149 1_555
Cu4 Na9 2.840012 1_455
Cu4 Na5 2.912233 1_555
Cu5 O12 1.922183 1_555
Cu5 O11 1.945037 1_555
Cu5 O9 1.999720 1_555
Cu5 O10 2.018461 1_555
Cu5 Na6 2.709205 1_555
Cu5 Na14 2.736343 1_555
Cu6 O12 1.915800 1_555
Cu6 O13 1.918875 1_545
Cu6 O10 2.033382 1_555
Cu6 O14 2.051234 1_545
Cu6 Na8 2.695981 1_545
Cu6 Na0 2.786411 1_556
Cu7 O15 1.854440 1_555
Cu7 O14 1.887401 1_555
Cu7 O13 1.941540 1_555
Cu7 Na2 2.893934 1_556
Cu7 Na14 3.018536 1_555
