# generated using pymatgen
data_IBrNCl
_symmetry_space_group_name_H-M   'P 1'
_cell_length_a   6.74830700
_cell_length_b   8.55110500
_cell_length_c   10.48083200
_cell_angle_alpha   90.00000000
_cell_angle_beta   90.00000000
_cell_angle_gamma   90.00000000
_symmetry_Int_Tables_number   1
_chemical_formula_structural   IBrNCl
_chemical_formula_sum   'I4 Br4 N4 Cl4'
_cell_volume   604.80145948
_cell_formula_units_Z   4
loop_
 _symmetry_equiv_pos_site_id
 _symmetry_equiv_pos_as_xyz
  1  'x, y, z'
loop_
 _atom_site_type_symbol
 _atom_site_label
 _atom_site_symmetry_multiplicity
 _atom_site_fract_x
 _atom_site_fract_y
 _atom_site_fract_z
 _atom_site_occupancy
  I  I0  1  0.25000000  0.03692400  0.13526500  1
  I  I1  1  0.25000000  0.46307600  0.63526500  1
  I  I2  1  0.75000000  0.96307600  0.86473500  1
  I  I3  1  0.75000000  0.53692400  0.36473500  1
  Br  Br0  1  0.25000000  0.23278900  0.94026500  1
  Br  Br1  1  0.25000000  0.26721100  0.44026500  1
  Br  Br2  1  0.75000000  0.76721100  0.05973500  1
  Br  Br3  1  0.75000000  0.73278900  0.55973500  1
  N  N0  1  0.75000000  0.45875700  0.84617700  1
  N  N1  1  0.75000000  0.04124300  0.34617700  1
  N  N2  1  0.25000000  0.54124300  0.15382300  1
  N  N3  1  0.25000000  0.95875700  0.65382300  1
  Cl  Cl0  1  0.25000000  0.85940200  0.32235900  1
  Cl  Cl1  1  0.25000000  0.64059800  0.82235900  1
  Cl  Cl2  1  0.75000000  0.14059800  0.67764100  1
  Cl  Cl3  1  0.75000000  0.35940200  0.17764100  1
loop_
_geom_bond_atom_site_label_1
_geom_bond_atom_site_label_2
_geom_bond_distance
_geom_bond_site_symmetry_2
I0 N1 4.033948 1_555
I0 N1 4.033948 1_455
I1 N0 4.033948 1_455
I1 N0 4.033948 1_555
I2 N3 4.033948 1_555
I2 N3 4.033948 1_655
I3 N2 4.033948 1_555
I3 N2 4.033948 1_655
Br0 I0 2.642372 1_556
Br0 N2 3.459319 1_556
Br0 N3 3.808392 1_545
Br0 N0 4.011363 1_455
Br0 N0 4.011363 1_555
Br1 I1 2.642372 1_555
Br1 N3 3.459319 1_545
Br1 N2 3.808392 1_555
Br1 N1 4.011363 1_455
Br1 N1 4.011363 1_555
Br2 I2 2.642372 1_554
Br2 N0 3.459319 1_554
Br2 N1 3.808392 1_565
Br2 N2 4.011363 1_655
Br2 N2 4.011363 1_555
Br3 I3 2.642372 1_555
Br3 N1 3.459319 1_565
Br3 N0 3.808392 1_555
Br3 N3 4.011363 1_655
Br3 N3 4.011363 1_555
Cl0 I0 2.479815 1_565
Cl0 N2 3.243745 1_555
Cl0 N3 3.576397 1_555
Cl0 N1 3.723583 1_565
Cl0 N1 3.723583 1_465
Cl1 I1 2.479815 1_555
Cl1 N3 3.243745 1_555
Cl1 N2 3.576397 1_556
Cl1 N0 3.723583 1_555
Cl1 N0 3.723583 1_455
Cl2 I2 2.479815 1_545
Cl2 N0 3.243745 1_555
Cl2 N1 3.576397 1_555
Cl2 N3 3.723583 1_545
Cl2 N3 3.723583 1_645
Cl3 I3 2.479815 1_555
Cl3 N1 3.243745 1_555
Cl3 N0 3.576397 1_554
Cl3 N2 3.723583 1_555
Cl3 N2 3.723583 1_655
