# generated using pymatgen
data_Ho2SO2
_symmetry_space_group_name_H-M   'P 1'
_cell_length_a   3.75042379
_cell_length_b   3.75042215
_cell_length_c   13.24272914
_cell_angle_alpha   89.99997563
_cell_angle_beta   89.99998694
_cell_angle_gamma   120.00001850
_symmetry_Int_Tables_number   1
_chemical_formula_structural   Ho2SO2
_chemical_formula_sum   'Ho4 S2 O4'
_cell_volume   161.31269493
_cell_formula_units_Z   2
loop_
 _symmetry_equiv_pos_site_id
 _symmetry_equiv_pos_as_xyz
  1  'x, y, z'
loop_
 _atom_site_type_symbol
 _atom_site_label
 _atom_site_symmetry_multiplicity
 _atom_site_fract_x
 _atom_site_fract_y
 _atom_site_fract_z
 _atom_site_occupancy
  Ho  Ho0  1  0.33333489  0.66670477  0.89252770  1
  Ho  Ho1  1  0.33333362  0.66667594  0.60747093  1
  Ho  Ho2  1  0.66666630  0.33334131  0.39252941  1
  Ho  Ho3  1  0.66666507  0.33336661  0.10747120  1
  S  S0  1  0.99999851  0.00001467  0.25000103  1
  S  S1  1  0.00000153  0.00001879  0.74999903  1
  O  O0  1  0.33333288  0.66669742  0.06449762  1
  O  O1  1  0.33333290  0.66667368  0.43550270  1
  O  O2  1  0.66666745  0.33336681  0.93550152  1
  O  O3  1  0.66666686  0.33334201  0.56449786  1
loop_
_geom_bond_atom_site_label_1
_geom_bond_atom_site_label_2
_geom_bond_distance
_geom_bond_site_symmetry_2
Ho0 O2 2.238829 1_565
Ho0 O2 2.238846 1_455
Ho0 O2 2.238856 1_555
Ho0 O0 2.277351 1_556
Ho0 S1 2.872425 1_565
Ho0 S1 2.872471 1_665
Ho0 S1 2.872519 1_555
Ho1 O3 2.238838 1_565
Ho1 O3 2.238842 1_455
Ho1 O3 2.238843 1_555
Ho1 O1 2.277329 1_555
Ho1 S1 2.872442 1_555
Ho1 S1 2.872471 1_665
Ho1 S1 2.872488 1_565
Ho2 O1 2.238839 1_555
Ho2 O1 2.238842 1_655
Ho2 O1 2.238844 1_545
Ho2 O3 2.277332 1_555
Ho2 S0 2.872451 1_555
Ho2 S0 2.872473 1_455
Ho2 S0 2.872484 1_565
Ho3 O0 2.238832 1_555
Ho3 O0 2.238846 1_655
Ho3 O0 2.238850 1_545
Ho3 O2 2.277348 1_554
Ho3 S0 2.872437 1_565
Ho3 S0 2.872481 1_455
Ho3 S0 2.872528 1_555
O0 O2 2.758023 1_554
O0 O2 2.758024 1_454
O0 O2 2.758032 1_564
O0 S0 3.274613 1_465
O0 S0 3.274644 1_565
O0 S0 3.274678 1_455
O1 O3 2.758016 1_555
O1 O3 2.758017 1_455
O1 O3 2.758023 1_565
O1 S0 3.274612 1_455
O1 S0 3.274625 1_565
O1 S0 3.274646 1_465
O2 S1 3.274603 1_665
O2 S1 3.274635 1_555
O2 S1 3.274669 1_655
O3 S1 3.274604 1_655
O3 S1 3.274619 1_555
O3 S1 3.274645 1_665
