# generated using pymatgen
data_Li2Cu2P4O13
_symmetry_space_group_name_H-M   'P 1'
_cell_length_a   8.46161000
_cell_length_b   4.72081000
_cell_length_c   11.77684395
_cell_angle_alpha   84.23472511
_cell_angle_beta   90.00000000
_cell_angle_gamma   90.00000000
_symmetry_Int_Tables_number   1
_chemical_formula_structural   Li2Cu2P4O13
_chemical_formula_sum   'Li4 Cu4 P8 O26'
_cell_volume   468.05416253
_cell_formula_units_Z   2
loop_
 _symmetry_equiv_pos_site_id
 _symmetry_equiv_pos_as_xyz
  1  'x, y, z'
loop_
 _atom_site_type_symbol
 _atom_site_label
 _atom_site_symmetry_multiplicity
 _atom_site_fract_x
 _atom_site_fract_y
 _atom_site_fract_z
 _atom_site_occupancy
  Li  Li0  1  0.06200700  0.01103600  0.61627100  1
  Li  Li1  1  0.43799300  0.01103600  0.61627100  1
  Li  Li2  1  0.56200700  0.98896400  0.38372900  1
  Li  Li3  1  0.93799300  0.98896400  0.38372900  1
  Cu  Cu0  1  0.47579600  0.01728000  0.87256100  1
  Cu  Cu1  1  0.02420400  0.01728000  0.87256100  1
  Cu  Cu2  1  0.97579600  0.98272000  0.12743900  1
  Cu  Cu3  1  0.52420400  0.98272000  0.12743900  1
  P  P0  1  0.75000000  0.58429800  0.98833400  1
  P  P1  1  0.25000000  0.45258100  0.70946200  1
  P  P2  1  0.75000000  0.70864000  0.74588000  1
  P  P3  1  0.75000000  0.37267800  0.52615400  1
  P  P4  1  0.25000000  0.62732200  0.47384600  1
  P  P5  1  0.25000000  0.29136000  0.25412000  1
  P  P6  1  0.75000000  0.54741900  0.29053800  1
  P  P7  1  0.25000000  0.41570200  0.01166600  1
  O  O0  1  0.59820100  0.77468300  0.99405000  1
  O  O1  1  0.90179900  0.77468300  0.99405000  1
  O  O2  1  0.25000000  0.68446200  0.93228500  1
  O  O3  1  0.75000000  0.48214600  0.85898900  1
  O  O4  1  0.59565800  0.87401300  0.74610300  1
  O  O5  1  0.90434200  0.87401300  0.74610300  1
  O  O6  1  0.40273500  0.31271700  0.75826500  1
  O  O7  1  0.09726500  0.31271700  0.75826500  1
  O  O8  1  0.25000000  0.77464200  0.69468700  1
  O  O9  1  0.75000000  0.52845200  0.64321900  1
  O  O10  1  0.25000000  0.35913800  0.57314200  1
  O  O11  1  0.09688100  0.78525800  0.47815900  1
  O  O12  1  0.40311900  0.78525800  0.47815900  1
  O  O13  1  0.90311900  0.21474200  0.52184100  1
  O  O14  1  0.59688100  0.21474200  0.52184100  1
  O  O15  1  0.75000000  0.64086200  0.42685800  1
  O  O16  1  0.25000000  0.47154800  0.35678100  1
  O  O17  1  0.75000000  0.22535800  0.30531300  1
  O  O18  1  0.59726500  0.68728300  0.24173500  1
  O  O19  1  0.90273500  0.68728300  0.24173500  1
  O  O20  1  0.09565800  0.12598700  0.25389700  1
  O  O21  1  0.40434200  0.12598700  0.25389700  1
  O  O22  1  0.25000000  0.51785400  0.14101100  1
  O  O23  1  0.75000000  0.31553800  0.06771500  1
  O  O24  1  0.09820100  0.22531700  0.00595000  1
  O  O25  1  0.40179900  0.22531700  0.00595000  1
loop_
_geom_bond_atom_site_label_1
_geom_bond_atom_site_label_2
_geom_bond_distance
_geom_bond_site_symmetry_2
Li0 O13 1.937577 1_455
Li0 O11 2.053534 1_545
Li0 O5 2.082647 1_445
Li0 O8 2.102755 1_545
Li0 O10 2.306774 1_555
Li0 O7 2.322101 1_555
Li1 O14 1.937577 1_555
Li1 O12 2.053534 1_545
Li1 O4 2.082647 1_545
Li1 O8 2.102755 1_545
Li1 O10 2.306774 1_555
Li1 O6 2.322101 1_555
Li2 O12 1.937577 1_555
Li2 O14 2.053534 1_565
Li2 O21 2.082647 1_565
Li2 O17 2.102755 1_565
Li2 O15 2.306774 1_555
Li2 O18 2.322101 1_555
Li3 O11 1.937577 1_655
Li3 O13 2.053534 1_565
Li3 O20 2.082647 1_665
Li3 O17 2.102755 1_565
Li3 O15 2.306774 1_555
Li3 O19 2.322101 1_555
Cu0 O6 1.939601 1_555
Cu0 O4 1.976459 1_545
Cu0 O0 2.025398 1_545
Cu0 O25 2.033287 1_556
Cu0 O2 2.528172 1_545
Cu1 O7 1.939601 1_555
Cu1 O5 1.976459 1_445
Cu1 O1 2.025398 1_445
Cu1 O24 2.033287 1_556
Cu1 O2 2.528172 1_545
Cu2 O19 1.939601 1_555
Cu2 O20 1.976459 1_665
Cu2 O24 2.025398 1_665
Cu2 O1 2.033287 1_554
Cu2 O23 2.528172 1_565
Cu3 O18 1.939601 1_555
Cu3 O21 1.976459 1_565
Cu3 O25 2.025398 1_565
Cu3 O0 2.033287 1_554
Cu3 O23 2.528172 1_565
O0 P0 1.572999 1_555
O1 P0 1.572999 1_555
O2 P7 1.498474 1_556
O3 P2 1.622195 1_555
O3 P0 1.643322 1_555
O4 P2 1.521674 1_555
O5 P2 1.521674 1_555
O6 P1 1.536328 1_555
O7 P1 1.536328 1_555
O8 P1 1.512848 1_555
O9 P2 1.546587 1_555
O9 P3 1.626395 1_555
O10 P4 1.634904 1_555
O10 P1 1.707116 1_555
O11 P4 1.498250 1_555
O12 P4 1.498250 1_555
O13 P3 1.498250 1_555
O14 P3 1.498250 1_555
O15 P3 1.634904 1_555
O15 P6 1.707116 1_555
O16 P5 1.546587 1_555
O16 P4 1.626395 1_555
O17 P6 1.512848 1_555
O18 P6 1.536328 1_555
O19 P6 1.536328 1_555
O20 P5 1.521674 1_555
O21 P5 1.521674 1_555
O22 P5 1.622195 1_555
O22 P7 1.643322 1_555
O23 P0 1.498474 1_554
O24 P7 1.572999 1_555
O25 P7 1.572999 1_555
