# generated using pymatgen
data_Li4AlCr3O8
_symmetry_space_group_name_H-M   'P 1'
_cell_length_a   5.07750464
_cell_length_b   5.91570673
_cell_length_c   5.85155662
_cell_angle_alpha   119.64187088
_cell_angle_beta   90.00106798
_cell_angle_gamma   73.41573531
_symmetry_Int_Tables_number   1
_chemical_formula_structural   Li4AlCr3O8
_chemical_formula_sum   'Li4 Al1 Cr3 O8'
_cell_volume   144.28997264
_cell_formula_units_Z   1
loop_
 _symmetry_equiv_pos_site_id
 _symmetry_equiv_pos_as_xyz
  1  'x, y, z'
loop_
 _atom_site_type_symbol
 _atom_site_label
 _atom_site_symmetry_multiplicity
 _atom_site_fract_x
 _atom_site_fract_y
 _atom_site_fract_z
 _atom_site_occupancy
  Li  Li0  1  0.00016600  0.99971700  0.99996800  1
  Li  Li1  1  0.99983400  0.00030100  0.50026300  1
  Li  Li2  1  0.49893300  0.00066700  0.25000100  1
  Li  Li3  1  0.50102800  0.99932800  0.74930900  1
  Al  Al0  1  0.00000000  0.50001900  0.50073200  1
  Cr  Cr0  1  0.50001200  0.49997000  0.25073900  1
  Cr  Cr1  1  0.00000400  0.50003900  0.00192900  1
  Cr  Cr2  1  0.49998500  0.50003400  0.74634800  1
  O  O0  1  0.75465600  0.27843800  0.38840600  1
  O  O1  1  0.24536600  0.72152700  0.60994200  1
  O  O2  1  0.25892200  0.72765700  0.11263300  1
  O  O3  1  0.74112400  0.27233600  0.88494100  1
  O  O4  1  0.23424200  0.28038200  0.63195700  1
  O  O5  1  0.23484400  0.27856700  0.14992300  1
  O  O6  1  0.76574200  0.71960000  0.85156500  1
  O  O7  1  0.76514000  0.72141700  0.37134300  1
loop_
_geom_bond_atom_site_label_1
_geom_bond_atom_site_label_2
_geom_bond_distance
_geom_bond_site_symmetry_2
Li0 O0 2.135104 1_466
Li0 O1 2.140649 1_555
Li0 O2 2.143239 1_556
Li0 O5 2.145051 1_566
Li0 O6 2.149269 1_455
Li0 O3 2.155632 1_465
Li1 O1 2.135196 1_645
Li1 O0 2.140423 1_555
Li1 O3 2.142986 1_555
Li1 O7 2.145262 1_545
Li1 O4 2.149050 1_655
Li1 O2 2.155704 1_645
Li2 O5 2.130142 1_555
Li2 O2 2.139861 1_545
Li2 O4 2.147579 1_555
Li2 O6 2.217068 1_544
Li2 O0 2.223408 1_555
Li2 O7 2.223889 1_545
Li3 O7 2.130184 1_555
Li3 O3 2.140191 1_565
Li3 O6 2.147705 1_555
Li3 O4 2.216862 1_565
Li3 O1 2.223290 1_555
Li3 O5 2.223965 1_566
Al0 O1 1.944529 1_555
Al0 O0 1.944734 1_455
Al0 O6 1.948568 1_455
Al0 O4 1.948614 1_555
Al0 O7 1.949344 1_455
Al0 O5 1.949429 1_555
Cr0 O2 2.025151 1_555
Cr0 O3 2.025263 1_554
Cr0 O0 2.028566 1_555
Cr0 O1 2.028616 1_555
Cr0 O5 2.029432 1_555
Cr0 O7 2.029434 1_555
Cr1 O2 2.027010 1_555
Cr1 O3 2.027195 1_454
Cr1 O7 2.029353 1_455
Cr1 O5 2.029469 1_555
Cr1 O6 2.030880 1_454
Cr1 O4 2.031041 1_554
Cr2 O1 2.023074 1_555
Cr2 O0 2.023382 1_555
Cr2 O6 2.023975 1_555
Cr2 O4 2.024257 1_555
Cr2 O2 2.027237 1_556
Cr2 O3 2.027374 1_555
