# generated using pymatgen
data_Li2Cu3(P2O7)2
_symmetry_space_group_name_H-M   'P 1'
_cell_length_a   5.29779000
_cell_length_b   6.25954246
_cell_length_c   16.44136365
_cell_angle_alpha   92.91286738
_cell_angle_beta   95.87607403
_cell_angle_gamma   108.48736611
_symmetry_Int_Tables_number   1
_chemical_formula_structural   Li2Cu3(P2O7)2
_chemical_formula_sum   'Li4 Cu6 P8 O28'
_cell_volume   512.36215730
_cell_formula_units_Z   2
loop_
 _symmetry_equiv_pos_site_id
 _symmetry_equiv_pos_as_xyz
  1  'x, y, z'
loop_
 _atom_site_type_symbol
 _atom_site_label
 _atom_site_symmetry_multiplicity
 _atom_site_fract_x
 _atom_site_fract_y
 _atom_site_fract_z
 _atom_site_occupancy
  Li  Li0  1  0.96315100  0.23386000  0.01501400  1
  Li  Li1  1  0.52711900  0.72458900  0.87880600  1
  Li  Li2  1  0.47288100  0.27541100  0.12119400  1
  Li  Li3  1  0.03684900  0.76614000  0.98498600  1
  Cu  Cu0  1  0.23332900  0.27910100  0.41374600  1
  Cu  Cu1  1  0.12533700  0.63177700  0.17646600  1
  Cu  Cu2  1  0.41893700  0.97037500  0.66700500  1
  Cu  Cu3  1  0.58106300  0.02962500  0.33299500  1
  Cu  Cu4  1  0.87466300  0.36822300  0.82353400  1
  Cu  Cu5  1  0.76667100  0.72089900  0.58625400  1
  P  P0  1  0.00074500  0.09313400  0.20024100  1
  P  P1  1  0.31100100  0.42992400  0.68261900  1
  P  P2  1  0.39702300  0.24255300  0.93025200  1
  P  P3  1  0.15282800  0.76906700  0.45333000  1
  P  P4  1  0.84717200  0.23093300  0.54667000  1
  P  P5  1  0.60297700  0.75744700  0.06974800  1
  P  P6  1  0.68899900  0.57007600  0.31738100  1
  P  P7  1  0.99925500  0.90686600  0.79975900  1
  O  O0  1  0.80334000  0.04158700  0.80410500  1
  O  O1  1  0.70423000  0.30958900  0.93004000  1
  O  O2  1  0.48904700  0.28574700  0.70647800  1
  O  O3  1  0.12935300  0.31372600  0.15897800  1
  O  O4  1  0.49048400  0.66859200  0.66376000  1
  O  O5  1  0.29304100  0.59304100  0.44892400  1
  O  O6  1  0.27897200  0.02943100  0.85859000  1
  O  O7  1  0.92108100  0.12404300  0.28539200  1
  O  O8  1  0.31176900  0.98428100  0.41381600  1
  O  O9  1  0.29722400  0.13818000  0.00825000  1
  O  O10  1  0.14271100  0.31621800  0.59612400  1
  O  O11  1  0.12979400  0.45964900  0.74398600  1
  O  O12  1  0.89550400  0.16684700  0.45947600  1
  O  O13  1  0.71380700  0.56864400  0.09143600  1
  O  O14  1  0.28619300  0.43135600  0.90856400  1
  O  O15  1  0.10449600  0.83315300  0.54052400  1
  O  O16  1  0.87020600  0.54035100  0.25601400  1
  O  O17  1  0.85728900  0.68378200  0.40387600  1
  O  O18  1  0.70277600  0.86182000  0.99175000  1
  O  O19  1  0.68823100  0.01571900  0.58618400  1
  O  O20  1  0.07891900  0.87595700  0.71460800  1
  O  O21  1  0.72102800  0.97056900  0.14141000  1
  O  O22  1  0.70695900  0.40695900  0.55107600  1
  O  O23  1  0.50951600  0.33140800  0.33624000  1
  O  O24  1  0.87064700  0.68627400  0.84102200  1
  O  O25  1  0.51095300  0.71425300  0.29352200  1
  O  O26  1  0.29577000  0.69041100  0.06996000  1
  O  O27  1  0.19666000  0.95841300  0.19589500  1
loop_
_geom_bond_atom_site_label_1
_geom_bond_atom_site_label_2
_geom_bond_distance
_geom_bond_site_symmetry_2
Li0 O1 2.036034 1_554
Li0 O9 2.051632 1_655
Li0 O18 2.288355 1_544
Li0 O3 2.408645 1_655
Li0 O14 2.647975 1_654
Li1 O14 1.992724 1_555
Li1 O18 2.007301 1_555
Li1 O24 2.061256 1_555
Li1 O0 2.522173 1_565
Li1 O6 2.654380 1_565
Li2 O13 1.992724 1_555
Li2 O9 2.007301 1_555
Li2 O3 2.061256 1_555
Li2 O27 2.522173 1_545
Li2 O21 2.654380 1_545
Li3 O26 2.036034 1_556
Li3 O18 2.051632 1_455
Li3 O9 2.288355 1_566
Li3 O24 2.408645 1_455
Li3 O13 2.647975 1_456
Cu0 O5 1.936251 1_555
Cu0 O12 1.947775 1_455
Cu0 O23 1.998076 1_555
Cu0 O8 2.016136 1_545
Cu0 O7 2.488119 1_455
Cu1 O16 1.952544 1_455
Cu1 O27 1.960645 1_555
Cu1 O3 2.004136 1_555
Cu1 O26 2.048225 1_555
Cu1 O13 2.374286 1_455
Cu1 O25 2.563019 1_555
Cu2 O2 1.952327 1_565
Cu2 O20 1.966520 1_555
Cu2 O19 2.012797 1_565
Cu2 O4 2.040323 1_555
Cu2 O15 2.457425 1_555
Cu3 O25 1.952327 1_545
Cu3 O7 1.966520 1_555
Cu3 O8 2.012797 1_545
Cu3 O23 2.040323 1_555
Cu3 O12 2.457425 1_555
Cu4 O11 1.952544 1_655
Cu4 O0 1.960645 1_555
Cu4 O24 2.004136 1_555
Cu4 O1 2.048225 1_555
Cu4 O14 2.374286 1_655
Cu4 O2 2.563019 1_555
Cu5 O22 1.936251 1_555
Cu5 O15 1.947775 1_655
Cu5 O4 1.998076 1_555
Cu5 O19 2.016136 1_565
Cu5 O20 2.488119 1_655
O0 P7 1.535469 1_545
O1 P2 1.546967 1_555
O2 P1 1.535630 1_555
O3 P0 1.557018 1_555
O4 P1 1.561643 1_555
O5 P3 1.514284 1_555
O6 P7 1.621803 1_445
O6 P2 1.649022 1_555
O7 P0 1.523413 1_655
O8 P3 1.558026 1_555
O9 P2 1.534869 1_554
O10 P1 1.599660 1_555
O10 P4 1.600834 1_455
O11 P1 1.505567 1_555
O12 P4 1.537372 1_555
O13 P5 1.519418 1_555
O14 P2 1.519418 1_555
O15 P3 1.537372 1_555
O16 P6 1.505567 1_555
O17 P6 1.599660 1_555
O17 P3 1.600834 1_655
O18 P5 1.534869 1_556
O19 P4 1.558026 1_555
O20 P7 1.523413 1_455
O21 P0 1.621803 1_665
O21 P5 1.649022 1_555
O22 P4 1.514284 1_555
O23 P6 1.561643 1_555
O24 P7 1.557018 1_555
O25 P6 1.535630 1_555
O26 P5 1.546967 1_555
O27 P0 1.535469 1_565
