# generated using pymatgen
data_Ba2Ta2O7
_symmetry_space_group_name_H-M   'P 1'
_cell_length_a   13.84191431
_cell_length_b   13.84191431
_cell_length_c   5.91417615
_cell_angle_alpha   90.00000000
_cell_angle_beta   90.00000000
_cell_angle_gamma   163.16874121
_symmetry_Int_Tables_number   1
_chemical_formula_structural   Ba2Ta2O7
_chemical_formula_sum   'Ba4 Ta4 O14'
_cell_volume   328.10752679
_cell_formula_units_Z   2
loop_
 _symmetry_equiv_pos_site_id
 _symmetry_equiv_pos_as_xyz
  1  'x, y, z'
loop_
 _atom_site_type_symbol
 _atom_site_label
 _atom_site_symmetry_multiplicity
 _atom_site_fract_x
 _atom_site_fract_y
 _atom_site_fract_z
 _atom_site_occupancy
  Ba  Ba0  1  0.70268227  0.29731773  0.75000000  1
  Ba  Ba1  1  0.55276269  0.44723731  0.25000000  1
  Ba  Ba2  1  0.29731773  0.70268227  0.25000000  1
  Ba  Ba3  1  0.44723731  0.55276269  0.75000000  1
  Ta  Ta0  1  0.83829391  0.16170609  0.75000000  1
  Ta  Ta1  1  0.94341023  0.05658977  0.25000000  1
  Ta  Ta2  1  0.16170609  0.83829391  0.25000000  1
  Ta  Ta3  1  0.05658977  0.94341023  0.75000000  1
  O  O0  1  -0.00000000  0.00000000  0.50000000  1
  O  O1  1  0.89853594  0.10146406  0.49679445  1
  O  O2  1  -0.00000000  0.00000000  0.00000000  1
  O  O3  1  0.89853594  0.10146406  0.00320555  1
  O  O4  1  0.79252736  0.20747264  0.52329267  1
  O  O5  1  0.79252736  0.20747264  0.97670733  1
  O  O6  1  0.55016713  0.44983287  0.75000000  1
  O  O7  1  0.65195101  0.34804899  0.25000000  1
  O  O8  1  0.44983287  0.55016713  0.25000000  1
  O  O9  1  0.20747264  0.79252736  0.02329267  1
  O  O10  1  0.20747264  0.79252736  0.47670733  1
  O  O11  1  0.10146406  0.89853594  0.50320555  1
  O  O12  1  0.34804899  0.65195101  0.75000000  1
  O  O13  1  0.10146406  0.89853594  -0.00320555  1
loop_
_geom_bond_atom_site_label_1
_geom_bond_atom_site_label_2
_geom_bond_distance
_geom_bond_site_symmetry_2
Ba0 O9 2.594903 1_656
Ba0 O10 2.594903 1_655
Ba0 O9 2.594903 1_546
Ba0 O10 2.594903 1_545
Ba0 O4 2.802079 1_555
Ba0 O5 2.802079 1_555
Ba0 O7 3.267195 1_555
Ba0 O7 3.267195 1_556
Ba1 O7 2.716346 1_555
Ba1 O8 2.818809 1_555
Ba1 O11 2.850476 1_545
Ba1 O13 2.850476 1_545
Ba1 O11 2.850476 1_655
Ba1 O13 2.850476 1_655
Ba1 O2 2.894450 1_665
Ba1 O0 2.894450 1_665
Ba1 O2 2.894450 1_555
Ba1 O0 2.894450 1_555
Ba1 O6 2.957942 1_555
Ba1 O6 2.957942 1_554
Ba2 O4 2.594903 1_455
Ba2 O5 2.594903 1_454
Ba2 O5 2.594903 1_564
Ba2 O4 2.594903 1_565
Ba2 O10 2.802079 1_555
Ba2 O9 2.802079 1_555
Ba2 O12 3.267195 1_554
Ba2 O12 3.267195 1_555
Ba3 O12 2.716346 1_555
Ba3 O6 2.818809 1_555
Ba3 O3 2.850476 1_456
Ba3 O3 2.850476 1_566
Ba3 O1 2.850476 1_455
Ba3 O1 2.850476 1_565
Ba3 O2 2.894450 1_666
Ba3 O0 2.894450 1_665
Ba3 O2 2.894450 1_556
Ba3 O0 2.894450 1_555
Ba3 O8 2.957942 1_555
Ba3 O8 2.957942 1_556
O0 Ta3 2.141921 1_545
O0 Ta1 2.141921 1_455
O0 O1 2.778733 1_455
O0 O11 2.778733 1_545
O0 O8 2.859629 1_445
O0 O8 2.859629 1_555
O0 O6 2.859629 1_555
O0 O6 2.859629 1_445
O1 Ta1 1.908042 1_555
O1 Ta0 2.228063 1_555
O1 O8 2.864917 1_545
O1 O8 2.864917 1_655
O2 Ta1 2.141921 1_455
O2 Ta3 2.141921 1_544
O2 O3 2.778733 1_455
O2 O8 2.859629 1_445
O2 O8 2.859629 1_555
O2 O6 2.859629 1_554
O2 O6 2.859629 1_444
O3 Ta1 1.908042 1_555
O3 Ta0 2.228063 1_554
O3 O8 2.864917 1_545
O3 O8 2.864917 1_655
O4 Ta0 1.835374 1_555
O5 Ta0 1.835374 1_555
O6 Ta3 2.033425 1_655
O6 Ta3 2.033425 1_545
O7 Ta2 2.043343 1_545
O7 Ta2 2.043343 1_655
O8 Ta1 2.033425 1_455
O8 Ta1 2.033425 1_565
O9 Ta2 1.835374 1_555
O10 Ta2 1.835374 1_555
O11 Ta3 1.908042 1_555
O11 Ta2 2.228063 1_555
O11 O6 2.864917 1_455
O11 O6 2.864917 1_565
O12 Ta0 2.043343 1_565
O12 Ta0 2.043343 1_455
O13 Ta3 1.908042 1_554
O13 Ta2 2.228063 1_555
O13 O2 2.778733 1_565
O13 O6 2.864917 1_454
O13 O6 2.864917 1_564
