# generated using pymatgen
data_Mn12O5F19
_symmetry_space_group_name_H-M   'P 1'
_cell_length_a   5.27247400
_cell_length_b   5.43067335
_cell_length_c   15.59969008
_cell_angle_alpha   83.80510405
_cell_angle_beta   86.64128534
_cell_angle_gamma   81.44648376
_symmetry_Int_Tables_number   1
_chemical_formula_structural   Mn12O5F19
_chemical_formula_sum   'Mn12 O5 F19'
_cell_volume   438.70861801
_cell_formula_units_Z   1
loop_
 _symmetry_equiv_pos_site_id
 _symmetry_equiv_pos_as_xyz
  1  'x, y, z'
loop_
 _atom_site_type_symbol
 _atom_site_label
 _atom_site_symmetry_multiplicity
 _atom_site_fract_x
 _atom_site_fract_y
 _atom_site_fract_z
 _atom_site_occupancy
  Mn  Mn0  1  0.07001500  0.01288800  0.00609700  1
  Mn  Mn1  1  0.53409000  0.00237800  0.85059300  1
  Mn  Mn2  1  0.03712600  0.03091600  0.67259500  1
  Mn  Mn3  1  0.47527500  0.01681500  0.51677300  1
  Mn  Mn4  1  0.01059400  0.93578100  0.33163700  1
  Mn  Mn5  1  0.55959900  0.05049400  0.17678600  1
  Mn  Mn6  1  0.96446600  0.51182500  0.83474300  1
  Mn  Mn7  1  0.44293500  0.47123500  0.98647300  1
  Mn  Mn8  1  0.49848700  0.43035500  0.33339000  1
  Mn  Mn9  1  0.00671000  0.51969000  0.49622600  1
  Mn  Mn10  1  0.45828700  0.44448700  0.65640700  1
  Mn  Mn11  1  0.95369200  0.47701200  0.17231300  1
  O  O0  1  0.77254900  0.20934200  0.27300800  1
  O  O1  1  0.32884700  0.20298900  0.92662400  1
  O  O2  1  0.23125900  0.25690200  0.58012100  1
  O  O3  1  0.21310400  0.64031200  0.38436100  1
  O  O4  1  0.63187200  0.66682600  0.90569900  1
  F  F0  1  0.29427700  0.17733400  0.75731300  1
  F  F1  1  0.82291600  0.17813100  0.90856800  1
  F  F2  1  0.26018500  0.13563500  0.40534000  1
  F  F3  1  0.72270300  0.13034200  0.59546800  1
  F  F4  1  0.24811600  0.26836200  0.08536100  1
  F  F5  1  0.78161900  0.35847100  0.73898000  1
  F  F6  1  0.68949700  0.38270800  0.43678600  1
  F  F7  1  0.73960000  0.31835400  0.08347100  1
  F  F8  1  0.30344400  0.39481300  0.23556400  1
  F  F9  1  0.35798000  0.73944800  0.06458700  1
  F  F10  1  0.24079800  0.68578300  0.73908200  1
  F  F11  1  0.69831800  0.65415200  0.57842500  1
  F  F12  1  0.72512100  0.70982700  0.26332800  1
  F  F13  1  0.20038000  0.77638400  0.56721500  1
  F  F14  1  0.12868200  0.71130100  0.92134400  1
  F  F15  1  0.21809800  0.91794800  0.22708400  1
  F  F16  1  0.76793000  0.88154000  0.42971100  1
  F  F17  1  0.83948400  0.82704500  0.09934300  1
  F  F18  1  0.77194400  0.87217400  0.75917800  1
loop_
_geom_bond_atom_site_label_1
_geom_bond_atom_site_label_2
_geom_bond_distance
_geom_bond_site_symmetry_2
Mn0 O1 2.099946 1_554
Mn1 O1 1.882142 1_555
Mn1 O4 1.939029 1_545
Mn2 O2 2.110307 1_555
Mn3 O2 1.990455 1_555
Mn4 O3 1.923453 1_555
Mn4 O0 1.976208 1_465
Mn5 O0 2.241192 1_555
Mn6 O4 2.131529 1_555
Mn6 O1 2.720967 1_655
Mn7 O4 1.893974 1_555
Mn7 O1 1.993898 1_555
Mn8 O3 1.934292 1_555
Mn8 O0 1.996106 1_555
Mn9 O3 2.097940 1_555
Mn9 O2 2.104043 1_555
Mn10 O2 2.162882 1_555
Mn11 O0 2.288456 1_555
F0 Mn1 2.044197 1_555
F0 Mn2 2.230362 1_555
F0 Mn10 2.247503 1_555
F0 Mn6 2.659011 1_455
F0 O1 2.678049 1_555
F0 F10 2.719015 1_555
F0 F5 2.755804 1_455
F0 F10 2.771915 1_545
F1 Mn0 2.099330 1_656
F1 Mn1 2.197260 1_555
F1 Mn6 2.240195 1_555
F1 O1 2.588635 1_555
F1 Mn7 2.684767 1_555
F1 O4 2.691554 1_555
F1 O1 2.723329 1_655
F1 F5 2.729511 1_555
F1 F14 2.789049 1_645
F1 F7 2.902701 1_556
F2 Mn3 2.120247 1_555
F2 Mn4 2.259004 1_545
F2 Mn8 2.333529 1_555
F2 O3 2.700725 1_555
F2 Mn9 2.780878 1_555
F2 O3 2.793318 1_545
F2 F8 2.875344 1_555
F3 Mn3 2.044327 1_555
F3 Mn2 2.077168 1_655
F3 Mn10 2.290200 1_555
F3 O2 2.598280 1_555
F3 F6 2.698841 1_555
F3 F5 2.727248 1_555
F3 O2 2.856012 1_655
F4 Mn7 2.105414 1_554
F4 Mn11 2.257287 1_455
F4 Mn0 2.286789 1_555
F4 Mn5 2.337371 1_555
F4 O1 2.541712 1_554
F4 F8 2.556137 1_555
F4 F7 2.643520 1_555
F4 F7 2.655952 1_455
F4 F9 2.688014 1_555
F4 F9 2.893954 1_545
F5 Mn6 2.128552 1_555
F5 Mn10 2.161991 1_555
F5 Mn2 2.360680 1_655
F6 Mn8 1.924976 1_555
F6 Mn9 2.216103 1_655
F6 Mn3 2.597765 1_555
F7 Mn11 2.160473 1_555
F7 Mn5 2.219804 1_555
F7 Mn7 2.246193 1_554
F7 Mn0 2.563161 1_655
F7 F9 2.814277 1_555
F8 Mn8 1.931353 1_555
F8 Mn11 2.108711 1_455
F8 Mn5 2.373805 1_555
F8 O0 2.602765 1_555
F9 Mn7 1.982967 1_554
F9 Mn0 2.131213 1_565
F9 Mn5 2.904666 1_565
F10 Mn10 2.107104 1_555
F10 Mn2 2.203214 1_565
F10 Mn6 2.256659 1_455
F10 F18 2.543052 1_455
F10 F13 2.688253 1_555
F10 F14 2.883805 1_555
F11 Mn10 2.080208 1_555
F11 Mn9 2.103779 1_655
F11 Mn3 2.285086 1_565
F11 F16 2.541316 1_555
F11 F13 2.621850 1_555
F11 F3 2.650674 1_565
F11 F6 2.791522 1_555
F11 F3 2.812683 1_555
F11 F13 2.814569 1_655
F11 F5 2.845261 1_555
F12 Mn11 2.190991 1_555
F12 Mn8 2.225823 1_555
F12 Mn5 2.263984 1_565
F12 Mn4 2.434388 1_655
F12 F17 2.625785 1_555
F12 O0 2.680740 1_555
F12 O0 2.781853 1_565
F12 F15 2.807823 1_555
F12 F16 2.882863 1_555
F13 Mn3 2.152277 1_565
F13 Mn9 2.258636 1_555
F13 Mn2 2.307526 1_565
F13 Mn10 2.446444 1_555
F13 O2 2.668394 1_565
F13 O2 2.787559 1_555
F13 F3 2.974045 1_465
F13 O3 3.017429 1_555
F14 Mn6 2.116634 1_455
F14 Mn7 2.178538 1_555
F14 Mn0 2.189716 1_566
F14 O4 2.627327 1_555
F14 F9 2.631235 1_556
F14 O4 2.693525 1_455
F14 O1 2.799163 1_555
F14 Mn1 2.939037 1_565
F15 Mn4 1.913106 1_555
F15 Mn5 2.115155 1_565
F15 F4 2.770339 1_565
F16 Mn4 1.962113 1_655
F16 Mn3 2.097073 1_565
F16 Mn9 2.345268 1_655
F16 F6 2.704702 1_565
F16 F2 2.850010 1_565
F17 Mn0 2.110152 1_665
F17 Mn11 2.131816 1_555
F17 Mn5 2.164365 1_565
F17 F7 2.629132 1_565
F17 F9 2.736573 1_655
F17 F9 2.746188 1_555
F17 F7 2.926759 1_555
F18 Mn1 1.962294 1_565
F18 Mn2 2.099598 1_665
F18 Mn6 2.302382 1_555
F18 O4 2.551561 1_555
F18 F5 2.633428 1_565
F18 F3 2.784199 1_565
F18 F5 2.833742 1_555
