# generated using pymatgen
data_VPO4
_symmetry_space_group_name_H-M   'P 1'
_cell_length_a   4.69951386
_cell_length_b   8.64997224
_cell_length_c   6.47330008
_cell_angle_alpha   89.99962611
_cell_angle_beta   89.99705793
_cell_angle_gamma   89.99984569
_symmetry_Int_Tables_number   1
_chemical_formula_structural   VPO4
_chemical_formula_sum   'V4 P4 O16'
_cell_volume   263.14394913
_cell_formula_units_Z   4
loop_
 _symmetry_equiv_pos_site_id
 _symmetry_equiv_pos_as_xyz
  1  'x, y, z'
loop_
 _atom_site_type_symbol
 _atom_site_label
 _atom_site_symmetry_multiplicity
 _atom_site_fract_x
 _atom_site_fract_y
 _atom_site_fract_z
 _atom_site_occupancy
  V  V0  1  0.99999625  -0.00000010  0.50000015  1
  V  V1  1  0.50000334  0.50000218  -0.00000022  1
  V  V2  1  -0.00000186  0.99999872  0.99999822  1
  V  V3  1  0.50000424  0.50000001  0.50000344  1
  P  P0  1  0.47724631  0.17694733  0.24998945  1
  P  P1  1  0.97724926  0.32305125  0.74998856  1
  P  P2  1  0.02275747  0.67694844  0.25001377  1
  P  P3  1  0.52274511  0.82305139  0.75000712  1
  O  O0  1  0.78884162  0.11793666  0.24997181  1
  O  O1  1  0.28884596  0.38206238  0.74996543  1
  O  O2  1  0.71115812  0.61793622  0.25003749  1
  O  O3  1  0.21115469  0.88205939  0.75002509  1
  O  O4  1  0.94599344  0.14350528  0.74999081  1
  O  O5  1  0.44599676  0.35649323  0.24998078  1
  O  O6  1  0.55400638  0.64350709  0.75001895  1
  O  O7  1  0.05400584  0.85649456  0.25001040  1
  O  O8  1  0.33315525  0.12142590  0.05354512  1
  O  O9  1  0.33318309  0.12141631  0.44638314  1
  O  O10  1  0.83316165  0.37857092  0.55352302  1
  O  O11  1  0.83317203  0.37858978  0.94637428  1
  O  O12  1  0.16683295  0.62141103  0.05363011  1
  O  O13  1  0.16684454  0.62143041  0.44647936  1
  O  O14  1  0.66681121  0.87858431  0.55361472  1
  O  O15  1  0.66683735  0.87857530  0.94645001  1
loop_
_geom_bond_atom_site_label_1
_geom_bond_atom_site_label_2
_geom_bond_distance
_geom_bond_site_symmetry_2
O0 P0 1.550760 1_555
O0 V2 2.154930 1_644
O0 V0 2.155254 1_555
O1 P1 1.550770 1_455
O1 V3 2.154869 1_555
O1 V1 2.155314 1_556
O2 P2 1.550785 1_655
O2 V3 2.154873 1_555
O2 V1 2.155301 1_555
O3 P3 1.550731 1_555
O3 V2 2.154934 1_555
O3 V0 2.155261 1_465
O4 P1 1.559999 1_555
O4 V0 2.055247 1_555
O4 V2 2.055347 1_645
O5 P0 1.559995 1_555
O5 V1 2.055207 1_555
O5 V3 2.055441 1_555
O6 P3 1.559986 1_555
O6 V1 2.055182 1_556
O6 V3 2.055403 1_555
O7 P2 1.559997 1_555
O7 V0 2.055246 1_465
O7 V2 2.055361 1_554
O8 P0 1.518672 1_555
O8 V2 1.916971 1_544
O9 P0 1.518302 1_555
O9 V0 1.917085 1_455
O10 P1 1.518769 1_555
O10 V3 1.916942 1_555
O11 P1 1.518313 1_555
O11 V1 1.917004 1_556
O12 P2 1.518295 1_555
O12 V1 1.916999 1_555
O13 P2 1.518764 1_555
O13 V3 1.916963 1_555
O14 P3 1.518307 1_555
O14 V0 1.917071 1_565
O15 P3 1.518674 1_555
O15 V2 1.916969 1_655
