# generated using pymatgen
data_Cr3Sb5O16
_symmetry_space_group_name_H-M   'P 1'
_cell_length_a   6.15202987
_cell_length_b   6.15202987
_cell_length_c   9.90460599
_cell_angle_alpha   89.85054659
_cell_angle_beta   89.85054659
_cell_angle_gamma   60.13632401
_symmetry_Int_Tables_number   1
_chemical_formula_structural   Cr3Sb5O16
_chemical_formula_sum   'Cr3 Sb5 O16'
_cell_volume   325.08556300
_cell_formula_units_Z   1
loop_
 _symmetry_equiv_pos_site_id
 _symmetry_equiv_pos_as_xyz
  1  'x, y, z'
loop_
 _atom_site_type_symbol
 _atom_site_label
 _atom_site_symmetry_multiplicity
 _atom_site_fract_x
 _atom_site_fract_y
 _atom_site_fract_z
 _atom_site_occupancy
  Cr  Cr0  1  0.34270000  0.83148500  0.80405900  1
  Cr  Cr1  1  0.83148500  0.34270000  0.80405900  1
  Cr  Cr2  1  0.16624700  0.16624700  0.27416900  1
  Sb  Sb0  1  0.65303900  0.65303900  0.53713900  1
  Sb  Sb1  1  0.32648300  0.32648300  0.00390800  1
  Sb  Sb2  1  0.83273600  0.83273600  0.79988100  1
  Sb  Sb3  1  0.16634800  0.67254000  0.27293100  1
  Sb  Sb4  1  0.67254000  0.16634800  0.27293100  1
  O  O0  1  0.31312900  0.83967400  0.37433800  1
  O  O1  1  0.52040600  0.52040600  0.69089500  1
  O  O2  1  0.67154800  0.67154800  0.90438400  1
  O  O3  1  0.00000100  0.00000100  0.71368400  1
  O  O4  1  0.00251300  0.00251300  0.16600700  1
  O  O5  1  0.83967400  0.31312900  0.37433800  1
  O  O6  1  0.52192800  0.96021200  0.68276100  1
  O  O7  1  0.96021200  0.52192800  0.68276100  1
  O  O8  1  0.16691800  0.16691800  0.90914900  1
  O  O9  1  0.83678200  0.83678200  0.37071700  1
  O  O10  1  0.05026400  0.48010200  0.15203700  1
  O  O11  1  0.48010200  0.05026400  0.15203700  1
  O  O12  1  0.33715300  0.33715300  0.37706500  1
  O  O13  1  0.16655200  0.66180900  0.90964000  1
  O  O14  1  0.47956100  0.47956100  0.14577300  1
  O  O15  1  0.66180900  0.16655200  0.90964000  1
loop_
_geom_bond_atom_site_label_1
_geom_bond_atom_site_label_2
_geom_bond_distance
_geom_bond_site_symmetry_2
Cr0 O1 2.008779 1_555
Cr0 O2 2.017772 1_555
Cr0 O6 2.035688 1_555
Cr0 O3 2.036972 1_565
Cr0 O8 2.072253 1_565
Cr0 O13 2.114816 1_555
Cr1 O1 2.008779 1_555
Cr1 O2 2.017772 1_555
Cr1 O7 2.035688 1_555
Cr1 O3 2.036972 1_655
Cr1 O8 2.072253 1_655
Cr1 O15 2.114816 1_555
Cr2 O5 2.005892 1_455
Cr2 O0 2.005892 1_545
Cr2 O4 2.049073 1_555
Cr2 O10 2.078671 1_555
Cr2 O11 2.078671 1_555
Cr2 O12 2.088473 1_555
O0 Sb3 1.953513 1_555
O0 Sb0 2.430657 1_555
O1 Sb0 2.073855 1_555
O2 Sb2 2.001649 1_555
O3 Sb2 1.972814 1_445
O4 Sb4 2.053069 1_455
O4 Sb3 2.053069 1_545
O5 Sb4 1.953513 1_555
O5 Sb0 2.430657 1_555
O6 Sb2 2.032311 1_555
O6 Sb0 2.189109 1_555
O7 Sb2 2.032311 1_555
O7 Sb0 2.189109 1_555
O8 Sb1 1.943558 1_556
O9 Sb4 2.006101 1_565
O9 Sb3 2.006101 1_655
O9 Sb0 2.554543 1_555
O10 Sb3 2.049201 1_555
O10 Sb1 2.080443 1_555
O11 Sb4 2.049201 1_555
O11 Sb1 2.080443 1_555
O12 Sb3 2.064121 1_555
O12 Sb4 2.064121 1_555
O13 Sb1 2.017158 1_556
O13 Sb2 2.088091 1_455
O13 O14 2.880083 1_556
O14 Sb3 2.103700 1_555
O14 Sb4 2.103700 1_555
O14 Sb1 2.155256 1_555
O14 O15 2.880083 1_554
O15 Sb1 2.017158 1_556
O15 Sb2 2.088091 1_545
