# generated using pymatgen
data_Li5Mn8(BO3)8
_symmetry_space_group_name_H-M   'P 1'
_cell_length_a   5.33506800
_cell_length_b   9.02482194
_cell_length_c   11.51976556
_cell_angle_alpha   112.44387631
_cell_angle_beta   101.32618475
_cell_angle_gamma   90.50815566
_symmetry_Int_Tables_number   1
_chemical_formula_structural   Li5Mn8(BO3)8
_chemical_formula_sum   'Li5 Mn8 B8 O24'
_cell_volume   500.50151822
_cell_formula_units_Z   1
loop_
 _symmetry_equiv_pos_site_id
 _symmetry_equiv_pos_as_xyz
  1  'x, y, z'
loop_
 _atom_site_type_symbol
 _atom_site_label
 _atom_site_symmetry_multiplicity
 _atom_site_fract_x
 _atom_site_fract_y
 _atom_site_fract_z
 _atom_site_occupancy
  Li  Li0  1  0.93221000  0.06343500  0.16518400  1
  Li  Li1  1  0.87239900  0.70800300  0.42217600  1
  Li  Li2  1  0.69720200  0.84901500  0.66291000  1
  Li  Li3  1  0.59260100  0.45566200  0.92252600  1
  Li  Li4  1  0.35340500  0.21966300  0.40651000  1
  Mn  Mn0  1  0.91472000  0.71128800  0.12841200  1
  Mn  Mn1  1  0.84757600  0.35302700  0.37798400  1
  Mn  Mn2  1  0.65420400  0.17610400  0.62545000  1
  Mn  Mn3  1  0.40567800  0.23329000  0.12696600  1
  Mn  Mn4  1  0.60404500  0.79366600  0.89007800  1
  Mn  Mn5  1  0.35310500  0.86451500  0.38311700  1
  Mn  Mn6  1  0.17461100  0.62460900  0.63271900  1
  Mn  Mn7  1  0.08486000  0.24652300  0.86870700  1
  B  B0  1  0.87842500  0.36725300  0.11252500  1
  B  B1  1  0.86586500  0.01402400  0.37763100  1
  B  B2  1  0.63114600  0.49663700  0.61720400  1
  B  B3  1  0.41276700  0.90250600  0.14654000  1
  B  B4  1  0.60383000  0.12068100  0.86334700  1
  B  B5  1  0.36573200  0.53035000  0.38656900  1
  B  B6  1  0.14665300  0.97412800  0.62302200  1
  B  B7  1  0.09844100  0.59286000  0.87071900  1
  O  O0  1  0.99638600  0.13450000  0.36330800  1
  O  O1  1  0.96072700  0.86291200  0.35153700  1
  O  O2  1  0.80977200  0.27122600  0.17442100  1
  O  O3  1  0.75307900  0.49557200  0.10918900  1
  O  O4  1  0.86764500  0.47879700  0.58305000  1
  O  O5  1  0.63944300  0.87418000  0.09999400  1
  O  O6  1  0.87532900  0.63365700  0.91859300  1
  O  O7  1  0.63274700  0.04181500  0.41857700  1
  O  O8  1  0.70154500  0.24040000  0.82711200  1
  O  O9  1  0.71165300  0.98093800  0.84283900  1
  O  O10  1  0.50349700  0.66214800  0.39347100  1
  O  O11  1  0.44408300  0.37595700  0.33557400  1
  O  O12  1  0.55071200  0.65159800  0.66507600  1
  O  O13  1  0.31852100  0.79613200  0.19694900  1
  O  O14  1  0.47652600  0.36360200  0.59466500  1
  O  O15  1  0.27582600  0.02691600  0.14251800  1
  O  O16  1  0.37302500  0.97193900  0.57382200  1
  O  O17  1  0.08227200  0.31755300  0.05139300  1
  O  O18  1  0.39851900  0.15805700  0.92242000  1
  O  O19  1  0.13784900  0.54534300  0.43491900  1
  O  O20  1  0.22565400  0.46623600  0.87695600  1
  O  O21  1  0.20146100  0.69437800  0.81814700  1
  O  O22  1  0.05346000  0.12335100  0.68008400  1
  O  O23  1  0.02132700  0.83512000  0.61037500  1
loop_
_geom_bond_atom_site_label_1
_geom_bond_atom_site_label_2
_geom_bond_distance
_geom_bond_site_symmetry_2
Li0 O15 1.915854 1_655
Li0 O2 1.962484 1_555
Li0 O0 2.075844 1_555
Li0 O5 2.105564 1_545
Li1 O10 1.944100 1_555
Li1 O1 1.961200 1_555
Li1 O23 2.013897 1_655
Li1 O19 2.074095 1_655
Li2 O23 1.931106 1_655
Li2 O9 1.941907 1_555
Li2 O12 1.950029 1_555
Li2 O16 2.341217 1_555
Li3 O20 1.937813 1_555
Li3 O8 1.990116 1_555
Li3 O3 2.041229 1_556
Li3 O6 2.212942 1_555
Li4 O0 1.943191 1_455
Li4 O11 1.978549 1_555
Li4 O14 2.023049 1_555
Li4 O7 2.224396 1_555
Mn0 O3 2.036854 1_555
Mn0 O5 2.154541 1_555
Mn0 O13 2.166042 1_655
Mn0 O6 2.209542 1_554
Mn0 O1 2.366441 1_555
Mn1 O0 2.091466 1_555
Mn1 O19 2.127194 1_655
Mn1 O2 2.138792 1_555
Mn1 O11 2.141838 1_555
Mn1 O4 2.175192 1_555
Mn2 O14 2.059676 1_555
Mn2 O8 2.129540 1_555
Mn2 O16 2.182394 1_545
Mn2 O7 2.201425 1_555
Mn2 O22 2.209099 1_655
Mn3 O17 2.062030 1_555
Mn3 O15 2.064348 1_555
Mn3 O2 2.108296 1_555
Mn3 O18 2.181126 1_554
Mn3 O11 2.216777 1_555
Mn4 O9 2.071209 1_555
Mn4 O6 2.121426 1_555
Mn4 O21 2.191462 1_555
Mn4 O5 2.210835 1_556
Mn4 O12 2.368437 1_555
Mn5 O13 1.961181 1_555
Mn5 O16 2.014368 1_555
Mn5 O10 2.036712 1_555
Mn5 O7 2.042591 1_565
Mn5 O1 2.052082 1_455
Mn6 O4 1.939036 1_455
Mn6 O21 1.957315 1_555
Mn6 O12 1.962814 1_555
Mn6 O19 2.078371 1_555
Mn6 O23 2.159309 1_555
Mn7 O18 1.953134 1_555
Mn7 O17 1.954872 1_556
Mn7 O22 1.998654 1_555
Mn7 O8 2.001902 1_455
Mn7 O20 2.075258 1_555
B0 O3 1.351811 1_555
B0 O17 1.395761 1_655
B0 O2 1.400848 1_555
B1 O0 1.364902 1_555
B1 O1 1.401896 1_545
B1 O7 1.406347 1_555
B2 O14 1.360018 1_555
B2 O4 1.386698 1_555
B2 O12 1.399562 1_555
B3 O15 1.355549 1_565
B3 O5 1.403875 1_555
B3 O13 1.429486 1_555
B4 O9 1.347584 1_545
B4 O18 1.378667 1_555
B4 O8 1.425907 1_555
B5 O10 1.360387 1_555
B5 O11 1.393949 1_555
B5 O19 1.420560 1_555
B6 O23 1.359931 1_555
B6 O22 1.399014 1_565
B6 O16 1.428608 1_555
B7 O20 1.352397 1_555
B7 O6 1.402550 1_455
B7 O21 1.433079 1_555
