# generated using pymatgen
data_Li7Fe7SiO16
_symmetry_space_group_name_H-M   'P 1'
_cell_length_a   5.11247600
_cell_length_b   5.55750613
_cell_length_c   13.08362944
_cell_angle_alpha   89.91953596
_cell_angle_beta   89.92709074
_cell_angle_gamma   89.87543907
_symmetry_Int_Tables_number   1
_chemical_formula_structural   Li7Fe7SiO16
_chemical_formula_sum   'Li7 Fe7 Si1 O16'
_cell_volume   371.73860420
_cell_formula_units_Z   1
loop_
 _symmetry_equiv_pos_site_id
 _symmetry_equiv_pos_as_xyz
  1  'x, y, z'
loop_
 _atom_site_type_symbol
 _atom_site_label
 _atom_site_symmetry_multiplicity
 _atom_site_fract_x
 _atom_site_fract_y
 _atom_site_fract_z
 _atom_site_occupancy
  Li  Li0  1  0.00754500  0.91822900  0.81182700  1
  Li  Li1  1  0.50635400  0.58533900  0.56022300  1
  Li  Li2  1  0.50458800  0.58411100  0.06386100  1
  Li  Li3  1  0.01351100  0.42428000  0.43613400  1
  Li  Li4  1  0.00852900  0.41909900  0.93910600  1
  Li  Li5  1  0.50028400  0.06550900  0.19188500  1
  Li  Li6  1  0.50729500  0.08172700  0.68716700  1
  Fe  Fe0  1  0.00289700  0.92066300  0.06207400  1
  Fe  Fe1  1  0.00649700  0.91976100  0.56326300  1
  Fe  Fe2  1  0.50594500  0.58320400  0.81309600  1
  Fe  Fe3  1  0.00694300  0.41639200  0.68656000  1
  Fe  Fe4  1  0.01012200  0.42116900  0.19038700  1
  Fe  Fe5  1  0.50061300  0.07739800  0.43142600  1
  Fe  Fe6  1  0.50268700  0.08371400  0.93703500  1
  Si  Si0  1  0.50187000  0.57365800  0.31363000  1
  O  O0  1  0.62589000  0.92965600  0.05909100  1
  O  O1  1  0.62911400  0.93336800  0.55392500  1
  O  O2  1  0.57410800  0.86199800  0.31947200  1
  O  O3  1  0.61376000  0.91189700  0.81744400  1
  O  O4  1  0.11359300  0.58941100  0.56645100  1
  O  O5  1  0.11005000  0.59056100  0.06972800  1
  O  O6  1  0.18246900  0.53740000  0.30925600  1
  O  O7  1  0.12994900  0.57202100  0.80780900  1
  O  O8  1  0.62954400  0.42985800  0.69065100  1
  O  O9  1  0.63014700  0.44806900  0.20884100  1
  O  O10  1  0.61248700  0.41936000  0.41500800  1
  O  O11  1  0.61218300  0.41328700  0.93427600  1
  O  O12  1  0.12212800  0.10477200  0.17287100  1
  O  O13  1  0.11234900  0.08713800  0.68464300  1
  O  O14  1  0.13753700  0.09420900  0.45118700  1
  O  O15  1  0.12761000  0.07217200  0.93962100  1
loop_
_geom_bond_atom_site_label_1
_geom_bond_atom_site_label_2
_geom_bond_distance
_geom_bond_site_symmetry_2
Li0 O15 1.978197 1_565
Li0 O13 1.983127 1_565
Li0 O3 2.014846 1_455
Li0 O7 2.022701 1_555
Li1 O4 2.009610 1_555
Li1 O8 2.012852 1_555
Li1 O1 2.036273 1_555
Li1 O10 2.180639 1_555
Li2 O5 2.018671 1_555
Li2 O11 2.019470 1_554
Li2 O0 2.020159 1_555
Li2 O9 2.139797 1_555
Li3 O14 1.949362 1_555
Li3 O6 1.973024 1_555
Li3 O4 2.004933 1_555
Li3 O10 2.069367 1_455
Li4 O7 2.013472 1_555
Li4 O15 2.020625 1_555
Li4 O5 2.026599 1_556
Li4 O11 2.027704 1_455
Li5 O12 1.961234 1_555
Li5 O0 1.999947 1_545
Li5 O2 2.050037 1_545
Li5 O9 2.240102 1_555
Li6 O13 2.019622 1_555
Li6 O3 2.021879 1_545
Li6 O1 2.026273 1_545
Li6 O8 2.035066 1_555
Fe0 O12 1.878570 1_565
Fe0 O5 1.915969 1_555
Fe0 O15 1.917883 1_564
Fe0 O0 1.928422 1_455
Fe1 O14 1.880235 1_565
Fe1 O4 1.915100 1_555
Fe1 O13 1.920596 1_565
Fe1 O1 1.934689 1_455
Fe2 O3 1.910155 1_555
Fe2 O8 1.921191 1_555
Fe2 O11 1.922554 1_555
Fe2 O7 1.924745 1_555
Fe3 O13 1.906598 1_555
Fe3 O7 1.915434 1_555
Fe3 O4 1.920215 1_555
Fe3 O8 1.931408 1_455
Fe4 O12 1.862455 1_555
Fe4 O6 1.902939 1_555
Fe4 O5 1.906633 1_555
Fe4 O9 1.962660 1_455
Fe5 O14 1.875956 1_555
Fe5 O1 1.907315 1_545
Fe5 O2 1.929068 1_545
Fe5 O10 1.997066 1_555
Fe6 O11 1.916682 1_555
Fe6 O0 1.917383 1_546
Fe6 O3 1.918870 1_545
Fe6 O15 1.919038 1_555
O2 Si0 1.647141 1_555
O6 Si0 1.646827 1_555
O9 Si0 1.671929 1_555
O10 Si0 1.676624 1_555
