# generated using pymatgen
data_Cs3LaO3
_symmetry_space_group_name_H-M   'P 1'
_cell_length_a   7.82800300
_cell_length_b   8.63981000
_cell_length_c   12.47856534
_cell_angle_alpha   85.38038357
_cell_angle_beta   90.00000000
_cell_angle_gamma   90.00000000
_symmetry_Int_Tables_number   1
_chemical_formula_structural   Cs3LaO3
_chemical_formula_sum   'Cs12 La4 O12'
_cell_volume   841.21434614
_cell_formula_units_Z   4
loop_
 _symmetry_equiv_pos_site_id
 _symmetry_equiv_pos_as_xyz
  1  'x, y, z'
loop_
 _atom_site_type_symbol
 _atom_site_label
 _atom_site_symmetry_multiplicity
 _atom_site_fract_x
 _atom_site_fract_y
 _atom_site_fract_z
 _atom_site_occupancy
  Cs  Cs0  1  0.33965700  0.34764200  0.07554200  1
  Cs  Cs1  1  0.61981800  0.94203500  0.15644800  1
  Cs  Cs2  1  0.82146800  0.38145900  0.19467700  1
  Cs  Cs3  1  0.32146800  0.61854100  0.30532300  1
  Cs  Cs4  1  0.11981800  0.05796500  0.34355200  1
  Cs  Cs5  1  0.83965700  0.65235800  0.42445800  1
  Cs  Cs6  1  0.16034300  0.34764200  0.57554200  1
  Cs  Cs7  1  0.88018200  0.94203500  0.65644800  1
  Cs  Cs8  1  0.67853200  0.38145900  0.69467700  1
  Cs  Cs9  1  0.17853200  0.61854100  0.80532300  1
  Cs  Cs10  1  0.38018200  0.05796500  0.84355200  1
  Cs  Cs11  1  0.66034300  0.65235800  0.92445800  1
  La  La0  1  0.09011300  0.83470800  0.07032600  1
  La  La1  1  0.59011300  0.16529200  0.42967400  1
  La  La2  1  0.40988700  0.83470800  0.57032600  1
  La  La3  1  0.90988700  0.16529200  0.92967400  1
  O  O0  1  0.35573000  0.74886700  0.04331300  1
  O  O1  1  0.05260700  0.10342900  0.09354300  1
  O  O2  1  0.94210200  0.69345700  0.19620700  1
  O  O3  1  0.44210200  0.30654300  0.30379300  1
  O  O4  1  0.55260700  0.89657100  0.40645700  1
  O  O5  1  0.85573000  0.25113300  0.45668700  1
  O  O6  1  0.14427000  0.74886700  0.54331300  1
  O  O7  1  0.44739300  0.10342900  0.59354300  1
  O  O8  1  0.55789800  0.69345700  0.69620700  1
  O  O9  1  0.05789800  0.30654300  0.80379300  1
  O  O10  1  0.94739300  0.89657100  0.90645700  1
  O  O11  1  0.64427000  0.25113300  0.95668700  1
loop_
_geom_bond_atom_site_label_1
_geom_bond_atom_site_label_2
_geom_bond_distance
_geom_bond_site_symmetry_2
Cs0 O3 2.952758 1_555
Cs0 O11 2.963116 1_554
Cs0 O1 3.078174 1_555
Cs0 O0 3.459723 1_555
Cs0 Cs3 3.847198 1_555
Cs0 Cs10 3.988977 1_554
Cs0 Cs11 3.998462 1_554
Cs0 Cs2 4.073145 1_555
Cs0 O9 4.084593 1_554
Cs0 Cs9 4.143382 1_554
Cs1 O0 3.071091 1_555
Cs1 O4 3.156988 1_555
Cs1 O2 3.324411 1_555
Cs1 O11 3.508542 1_564
Cs1 O1 3.723162 1_665
Cs1 Cs3 3.985091 1_555
Cs1 Cs11 3.988977 1_554
Cs1 O3 4.020780 1_565
Cs2 O2 2.857740 1_555
Cs2 O3 3.309072 1_555
Cs2 O1 3.335410 1_655
Cs2 O5 3.381785 1_555
Cs2 O11 3.542615 1_554
Cs2 Cs5 3.847198 1_555
Cs2 Cs4 3.985091 1_655
Cs3 O3 2.857740 1_555
Cs3 O2 3.309072 1_455
Cs3 O4 3.335410 1_555
Cs3 O0 3.381785 1_555
Cs3 O6 3.542615 1_555
Cs3 Cs5 4.073145 1_455
Cs3 Cs6 4.143382 1_555
Cs4 O5 3.071091 1_455
Cs4 O1 3.156988 1_555
Cs4 O3 3.324411 1_555
Cs4 O6 3.508542 1_545
Cs4 O4 3.723162 1_545
Cs4 Cs6 3.988977 1_555
Cs4 O2 4.020780 1_445
Cs5 O2 2.952758 1_555
Cs5 O6 2.963116 1_655
Cs5 O4 3.078174 1_555
Cs5 O5 3.459723 1_555
Cs5 Cs7 3.988977 1_555
Cs5 Cs6 3.998462 1_655
Cs5 O8 4.084593 1_555
Cs5 Cs8 4.143382 1_555
Cs6 O9 2.952758 1_555
Cs6 O5 2.963116 1_455
Cs6 O7 3.078174 1_555
Cs6 O6 3.459723 1_555
Cs6 Cs9 3.847198 1_555
Cs6 Cs8 4.073145 1_455
Cs6 O3 4.084593 1_555
Cs7 O6 3.071091 1_655
Cs7 O10 3.156988 1_555
Cs7 O8 3.324411 1_555
Cs7 O5 3.508542 1_565
Cs7 O7 3.723162 1_565
Cs7 Cs9 3.985091 1_655
Cs7 O9 4.020780 1_665
Cs8 O8 2.857740 1_555
Cs8 O9 3.309072 1_655
Cs8 O7 3.335410 1_555
Cs8 O11 3.381785 1_555
Cs8 O5 3.542615 1_555
Cs9 O9 2.857740 1_555
Cs9 O8 3.309072 1_555
Cs9 O10 3.335410 1_455
Cs9 O6 3.381785 1_555
Cs9 O0 3.542615 1_556
Cs10 O11 3.071091 1_555
Cs10 O7 3.156988 1_555
Cs10 O9 3.324411 1_555
Cs10 O0 3.508542 1_546
Cs10 O10 3.723162 1_445
Cs10 Cs8 3.985091 1_555
Cs10 O8 4.020780 1_545
Cs11 O8 2.952758 1_555
Cs11 O0 2.963116 1_556
Cs11 O10 3.078174 1_555
Cs11 O11 3.459723 1_555
Cs11 Cs8 3.847198 1_555
Cs11 Cs9 4.073145 1_555
Cs11 O2 4.084593 1_556
Cs11 Cs2 4.143382 1_556
La0 O2 2.233926 1_455
La0 O0 2.242147 1_555
La0 O10 2.353550 1_454
La0 O1 2.380917 1_565
La1 O3 2.233926 1_555
La1 O5 2.242147 1_555
La1 O7 2.353550 1_555
La1 O4 2.380917 1_545
La2 O8 2.233926 1_555
La2 O6 2.242147 1_555
La2 O4 2.353550 1_555
La2 O7 2.380917 1_565
La3 O9 2.233926 1_655
La3 O11 2.242147 1_555
La3 O1 2.353550 1_656
La3 O10 2.380917 1_545
