# generated using pymatgen
data_NiB12(H3O)12
_symmetry_space_group_name_H-M   'P 1'
_cell_length_a   13.62731663
_cell_length_b   13.62731663
_cell_length_c   13.62731663
_cell_angle_alpha   60.00000000
_cell_angle_beta   60.00000000
_cell_angle_gamma   60.00000000
_symmetry_Int_Tables_number   1
_chemical_formula_structural   NiB12(H3O)12
_chemical_formula_sum   'Ni2 B24 H72 O24'
_cell_volume   1789.43547529
_cell_formula_units_Z   2
loop_
 _symmetry_equiv_pos_site_id
 _symmetry_equiv_pos_as_xyz
  1  'x, y, z'
loop_
 _atom_site_type_symbol
 _atom_site_label
 _atom_site_symmetry_multiplicity
 _atom_site_fract_x
 _atom_site_fract_y
 _atom_site_fract_z
 _atom_site_occupancy
  Ni  Ni0  1  0.25000000  0.25000000  0.25000000  1
  Ni  Ni1  1  0.00000000  0.00000000  0.00000000  1
  B  B0  1  0.87061700  0.77893100  0.62907900  1
  B  B1  1  0.72137300  0.87061700  0.62907900  1
  B  B2  1  0.77893100  0.72137300  0.62907900  1
  B  B3  1  0.47106900  0.37938300  0.62092100  1
  B  B4  1  0.52862700  0.47106900  0.62092100  1
  B  B5  1  0.37938300  0.52862700  0.62092100  1
  B  B6  1  0.62907900  0.72137300  0.87061700  1
  B  B7  1  0.62907900  0.77893100  0.72137300  1
  B  B8  1  0.62907900  0.87061700  0.77893100  1
  B  B9  1  0.62092100  0.52862700  0.47106900  1
  B  B10  1  0.62092100  0.37938300  0.52862700  1
  B  B11  1  0.62092100  0.47106900  0.37938300  1
  B  B12  1  0.72137300  0.62907900  0.77893100  1
  B  B13  1  0.77893100  0.62907900  0.87061700  1
  B  B14  1  0.87061700  0.62907900  0.72137300  1
  B  B15  1  0.52862700  0.62092100  0.37938300  1
  B  B16  1  0.37938300  0.62092100  0.47106900  1
  B  B17  1  0.47106900  0.62092100  0.52862700  1
  B  B18  1  0.77893100  0.87061700  0.72137300  1
  B  B19  1  0.87061700  0.72137300  0.77893100  1
  B  B20  1  0.72137300  0.77893100  0.87061700  1
  B  B21  1  0.37938300  0.47106900  0.52862700  1
  B  B22  1  0.47106900  0.52862700  0.37938300  1
  B  B23  1  0.52862700  0.37938300  0.47106900  1
  H  H0  1  0.06157500  0.15396800  0.42599000  1
  H  H1  1  0.35846800  0.06157500  0.42599000  1
  H  H2  1  0.15396800  0.35846800  0.42599000  1
  H  H3  1  0.09603200  0.18842500  0.82401000  1
  H  H4  1  0.89153200  0.09603200  0.82401000  1
  H  H5  1  0.18842500  0.89153200  0.82401000  1
  H  H6  1  0.42599000  0.35846800  0.06157500  1
  H  H7  1  0.42599000  0.15396800  0.35846800  1
  H  H8  1  0.42599000  0.06157500  0.15396800  1
  H  H9  1  0.82401000  0.89153200  0.09603200  1
  H  H10  1  0.82401000  0.18842500  0.89153200  1
  H  H11  1  0.82401000  0.09603200  0.18842500  1
  H  H12  1  0.35846800  0.42599000  0.15396800  1
  H  H13  1  0.15396800  0.42599000  0.06157500  1
  H  H14  1  0.06157500  0.42599000  0.35846800  1
  H  H15  1  0.89153200  0.82401000  0.18842500  1
  H  H16  1  0.18842500  0.82401000  0.09603200  1
  H  H17  1  0.09603200  0.82401000  0.89153200  1
  H  H18  1  0.15396800  0.06157500  0.35846800  1
  H  H19  1  0.06157500  0.35846800  0.15396800  1
  H  H20  1  0.35846800  0.15396800  0.06157500  1
  H  H21  1  0.18842500  0.09603200  0.89153200  1
  H  H22  1  0.09603200  0.89153200  0.18842500  1
  H  H23  1  0.89153200  0.18842500  0.09603200  1
  H  H24  1  0.15906500  0.35424200  0.61461400  1
  H  H25  1  0.87207800  0.15906500  0.61461400  1
  H  H26  1  0.35424200  0.87207800  0.61461400  1
  H  H27  1  0.89575800  0.09093500  0.63538600  1
  H  H28  1  0.37792200  0.89575800  0.63538600  1
  H  H29  1  0.09093500  0.37792200  0.63538600  1
  H  H30  1  0.61461400  0.87207800  0.15906500  1
  H  H31  1  0.61461400  0.35424200  0.87207800  1
  H  H32  1  0.61461400  0.15906500  0.35424200  1
  H  H33  1  0.63538600  0.37792200  0.89575800  1
  H  H34  1  0.63538600  0.09093500  0.37792200  1
  H  H35  1  0.63538600  0.89575800  0.09093500  1
  H  H36  1  0.87207800  0.61461400  0.35424200  1
  H  H37  1  0.35424200  0.61461400  0.15906500  1
  H  H38  1  0.15906500  0.61461400  0.87207800  1
  H  H39  1  0.37792200  0.63538600  0.09093500  1
  H  H40  1  0.09093500  0.63538600  0.89575800  1
  H  H41  1  0.89575800  0.63538600  0.37792200  1
  H  H42  1  0.35424200  0.15906500  0.87207800  1
  H  H43  1  0.15906500  0.87207800  0.35424200  1
  H  H44  1  0.87207800  0.35424200  0.15906500  1
  H  H45  1  0.09093500  0.89575800  0.37792200  1
  H  H46  1  0.89575800  0.37792200  0.09093500  1
  H  H47  1  0.37792200  0.09093500  0.89575800  1
  H  H48  1  0.95447300  0.80214100  0.54140600  1
  H  H49  1  0.70198000  0.95447300  0.54140600  1
  H  H50  1  0.80214100  0.70198000  0.54140600  1
  H  H51  1  0.44785900  0.29552700  0.70859400  1
  H  H52  1  0.54802000  0.44785900  0.70859400  1
  H  H53  1  0.29552700  0.54802000  0.70859400  1
  H  H54  1  0.54140600  0.70198000  0.95447300  1
  H  H55  1  0.54140600  0.80214100  0.70198000  1
  H  H56  1  0.54140600  0.95447300  0.80214100  1
  H  H57  1  0.70859400  0.54802000  0.44785900  1
  H  H58  1  0.70859400  0.29552700  0.54802000  1
  H  H59  1  0.70859400  0.44785900  0.29552700  1
  H  H60  1  0.70198000  0.54140600  0.80214100  1
  H  H61  1  0.80214100  0.54140600  0.95447300  1
  H  H62  1  0.95447300  0.54140600  0.70198000  1
  H  H63  1  0.54802000  0.70859400  0.29552700  1
  H  H64  1  0.29552700  0.70859400  0.44785900  1
  H  H65  1  0.44785900  0.70859400  0.54802000  1
  H  H66  1  0.80214100  0.95447300  0.70198000  1
  H  H67  1  0.95447300  0.70198000  0.80214100  1
  H  H68  1  0.70198000  0.80214100  0.95447300  1
  H  H69  1  0.29552700  0.44785900  0.54802000  1
  H  H70  1  0.44785900  0.54802000  0.29552700  1
  H  H71  1  0.54802000  0.29552700  0.44785900  1
  O  O0  1  0.13817000  0.13817000  0.36183000  1
  O  O1  1  0.36183000  0.13817000  0.36183000  1
  O  O2  1  0.13817000  0.36183000  0.36183000  1
  O  O3  1  0.11183000  0.11183000  0.88817000  1
  O  O4  1  0.88817000  0.11183000  0.88817000  1
  O  O5  1  0.11183000  0.88817000  0.88817000  1
  O  O6  1  0.36183000  0.36183000  0.13817000  1
  O  O7  1  0.36183000  0.13817000  0.13817000  1
  O  O8  1  0.88817000  0.88817000  0.11183000  1
  O  O9  1  0.88817000  0.11183000  0.11183000  1
  O  O10  1  0.13817000  0.36183000  0.13817000  1
  O  O11  1  0.11183000  0.88817000  0.11183000  1
  O  O12  1  0.68623400  0.56376600  0.62500000  1
  O  O13  1  0.12500000  0.68623400  0.62500000  1
  O  O14  1  0.56376600  0.12500000  0.62500000  1
  O  O15  1  0.62500000  0.12500000  0.68623400  1
  O  O16  1  0.62500000  0.56376600  0.12500000  1
  O  O17  1  0.62500000  0.68623400  0.56376600  1
  O  O18  1  0.12500000  0.62500000  0.56376600  1
  O  O19  1  0.56376600  0.62500000  0.68623400  1
  O  O20  1  0.68623400  0.62500000  0.12500000  1
  O  O21  1  0.56376600  0.68623400  0.12500000  1
  O  O22  1  0.68623400  0.12500000  0.56376600  1
  O  O23  1  0.12500000  0.56376600  0.68623400  1
loop_
_geom_bond_atom_site_label_1
_geom_bond_atom_site_label_2
_geom_bond_distance
_geom_bond_site_symmetry_2
Ni0 O7 2.155181 1_555
Ni0 O0 2.155181 1_555
Ni0 O10 2.155181 1_555
Ni0 O2 2.155181 1_555
Ni0 O6 2.155181 1_555
Ni0 O1 2.155181 1_555
Ni1 O5 2.155181 1_544
Ni1 O4 2.155181 1_454
Ni1 O8 2.155181 1_445
Ni1 O11 2.155181 1_545
Ni1 O9 2.155181 1_455
Ni1 O3 2.155181 1_554
B0 H48 1.204811 1_555
B1 H49 1.204811 1_555
B2 H50 1.204811 1_555
B3 H51 1.204811 1_555
B4 H52 1.204811 1_555
B5 H53 1.204811 1_555
B6 H54 1.204811 1_555
B7 H55 1.204811 1_555
B8 H56 1.204811 1_555
B9 H57 1.204811 1_555
B10 H58 1.204811 1_555
B11 H59 1.204811 1_555
B12 H60 1.204811 1_555
B13 H61 1.204811 1_555
B14 H62 1.204811 1_555
B15 H63 1.204811 1_555
B16 H64 1.204811 1_555
B17 H65 1.204811 1_555
B18 H66 1.204811 1_555
B19 H67 1.204811 1_555
B20 H68 1.204811 1_555
B21 H69 1.204811 1_555
B22 H70 1.204811 1_555
B23 H71 1.204811 1_555
H0 O0 0.975291 1_555
H1 O1 0.975289 1_555
H2 O2 0.975298 1_555
H3 O3 0.975291 1_555
H4 O4 0.975298 1_555
H5 O5 0.975289 1_555
H6 O6 0.975289 1_555
H7 O1 0.975298 1_555
H8 O7 0.975291 1_555
H9 O8 0.975298 1_555
H10 O4 0.975289 1_555
H11 O9 0.975291 1_555
H12 O6 0.975298 1_555
H13 O10 0.975291 1_555
H14 O2 0.975289 1_555
H15 O8 0.975289 1_555
H16 O11 0.975291 1_555
H17 O5 0.975298 1_555
H18 O0 0.975284 1_555
H19 O10 0.975284 1_555
H20 O7 0.975284 1_555
H21 O3 0.975284 1_555
H22 O11 0.975284 1_555
H23 O9 0.975284 1_555
H24 H29 0.758404 1_555
H25 H27 0.758404 1_555
H26 H28 0.758427 1_555
H30 H35 0.758404 1_555
H31 H33 0.758427 1_555
H32 H34 0.758404 1_555
H36 H41 0.758427 1_555
H37 H39 0.758404 1_555
H38 H40 0.758404 1_555
H42 H47 0.758405 1_555
H43 H45 0.758405 1_555
H44 H46 0.758405 1_555
O12 O17 1.445319 1_555
O12 O19 1.445319 1_555
O13 O18 1.445319 1_555
O13 O23 1.445319 1_555
O14 O15 1.445319 1_555
O14 O22 1.445319 1_555
O15 O22 1.445319 1_555
O16 O20 1.445319 1_555
O16 O21 1.445319 1_555
O17 O19 1.445319 1_555
O18 O23 1.445319 1_555
O20 O21 1.445319 1_555
