# generated using pymatgen
data_Li4Ti2V3Sn3O16
_symmetry_space_group_name_H-M   'P 1'
_cell_length_a   6.17209320
_cell_length_b   6.17209320
_cell_length_c   9.68195160
_cell_angle_alpha   89.48065017
_cell_angle_beta   89.48065017
_cell_angle_gamma   59.29456700
_symmetry_Int_Tables_number   1
_chemical_formula_structural   Li4Ti2V3Sn3O16
_chemical_formula_sum   'Li4 Ti2 V3 Sn3 O16'
_cell_volume   317.10539013
_cell_formula_units_Z   1
loop_
 _symmetry_equiv_pos_site_id
 _symmetry_equiv_pos_as_xyz
  1  'x, y, z'
loop_
 _atom_site_type_symbol
 _atom_site_label
 _atom_site_symmetry_multiplicity
 _atom_site_fract_x
 _atom_site_fract_y
 _atom_site_fract_z
 _atom_site_occupancy
  Li  Li0  1  0.67276600  0.67276600  0.89264300  1
  Li  Li1  1  0.99071100  0.99071100  0.98872000  1
  Li  Li2  1  0.99469800  0.99469800  0.50113100  1
  Li  Li3  1  0.33311400  0.33311400  0.39714600  1
  Ti  Ti0  1  0.67815400  0.67815400  0.50165100  1
  Ti  Ti1  1  0.34425900  0.34425900  0.97763800  1
  V  V0  1  0.82867300  0.82867300  0.21396500  1
  V  V1  1  0.65166500  0.18275600  0.71315700  1
  V  V2  1  0.18275600  0.65166500  0.71315700  1
  Sn  Sn0  1  0.82948800  0.33799600  0.21457000  1
  Sn  Sn1  1  0.33799600  0.82948800  0.21457000  1
  Sn  Sn2  1  0.17012400  0.17012400  0.71385500  1
  O  O0  1  0.83143200  0.34579700  0.59117900  1
  O  O1  1  0.51577800  0.51577800  0.34394300  1
  O  O2  1  0.66642700  0.66642700  0.09767100  1
  O  O3  1  0.99634600  0.99634600  0.31604100  1
  O  O4  1  0.99823000  0.99823000  0.80369800  1
  O  O5  1  0.34579700  0.83143200  0.59117900  1
  O  O6  1  0.95581800  0.52494800  0.34272200  1
  O  O7  1  0.52494800  0.95581800  0.34272200  1
  O  O8  1  0.16040000  0.16040000  0.09397200  1
  O  O9  1  0.82866100  0.82866100  0.59468800  1
  O  O10  1  0.47771900  0.04605200  0.85053000  1
  O  O11  1  0.04605200  0.47771900  0.85053000  1
  O  O12  1  0.33120200  0.33120200  0.59987300  1
  O  O13  1  0.66555600  0.16023600  0.09722500  1
  O  O14  1  0.48122900  0.48122900  0.85247300  1
  O  O15  1  0.16023600  0.66555600  0.09722500  1
loop_
_geom_bond_atom_site_label_1
_geom_bond_atom_site_label_2
_geom_bond_distance
_geom_bond_site_symmetry_2
Li0 O2 1.985527 1_556
Li0 O11 2.020651 1_655
Li0 O10 2.020651 1_565
Li0 O14 2.095306 1_555
Li1 O4 1.792349 1_555
Li1 O15 2.015752 1_656
Li1 O13 2.015752 1_566
Li1 O8 2.095518 1_666
Li2 O3 1.791935 1_555
Li2 O9 1.989919 1_555
Li2 O0 2.063915 1_565
Li2 O5 2.063915 1_655
Li3 O12 1.962686 1_555
Li3 O1 2.021018 1_555
Li3 O6 2.073052 1_455
Li3 O7 2.073052 1_545
O0 Ti0 1.963435 1_555
O0 Sn2 2.159447 1_655
O0 V1 2.175640 1_555
O1 Sn1 2.081644 1_555
O1 Sn0 2.081644 1_555
O1 Ti0 2.328417 1_555
O2 Sn1 2.073312 1_555
O2 Sn0 2.073312 1_555
O2 V0 2.082870 1_555
O3 Sn1 2.058002 1_655
O3 Sn0 2.058002 1_565
O3 V0 2.061451 1_555
O4 Sn2 2.030745 1_665
O4 V1 2.041810 1_565
O4 V2 2.041810 1_655
O5 Ti0 1.963435 1_555
O5 Sn2 2.159447 1_565
O5 V2 2.175640 1_555
O6 V0 2.038895 1_555
O6 Sn0 2.107421 1_555
O6 Ti0 2.126614 1_555
O7 V0 2.038895 1_555
O7 Sn1 2.107421 1_555
O7 Ti0 2.126614 1_555
O8 Sn0 2.104749 1_455
O8 Sn1 2.104749 1_545
O8 Ti1 2.261181 1_554
O9 Ti0 1.857118 1_555
O9 V1 2.206799 1_565
O9 V2 2.206799 1_655
O10 Ti1 2.013715 1_555
O10 Sn2 2.117606 1_555
O10 V1 2.124249 1_555
O11 Ti1 2.013715 1_555
O11 Sn2 2.117606 1_555
O11 V2 2.124249 1_555
O12 V2 2.031018 1_555
O12 V1 2.031018 1_555
O12 Sn2 2.040666 1_555
O13 Ti1 2.069000 1_554
O13 V0 2.086536 1_545
O13 Sn0 2.166888 1_555
O14 Ti1 1.894904 1_555
O14 V1 2.088049 1_555
O14 V2 2.088049 1_555
O15 Ti1 2.069000 1_554
O15 V0 2.086536 1_455
O15 Sn1 2.166888 1_555
