# generated using pymatgen
data_Li2Ti3FeO8
_symmetry_space_group_name_H-M   'P 1'
_cell_length_a   6.01063207
_cell_length_b   6.00837913
_cell_length_c   5.97314430
_cell_angle_alpha   60.20131766
_cell_angle_beta   60.16530343
_cell_angle_gamma   59.70736368
_symmetry_Int_Tables_number   1
_chemical_formula_structural   Li2Ti3FeO8
_chemical_formula_sum   'Li2 Ti3 Fe1 O8'
_cell_volume   152.61183724
_cell_formula_units_Z   1
loop_
 _symmetry_equiv_pos_site_id
 _symmetry_equiv_pos_as_xyz
  1  'x, y, z'
loop_
 _atom_site_type_symbol
 _atom_site_label
 _atom_site_symmetry_multiplicity
 _atom_site_fract_x
 _atom_site_fract_y
 _atom_site_fract_z
 _atom_site_occupancy
  Li  Li0  1  0.11826200  0.11849500  0.11989700  1
  Li  Li1  1  0.50132600  0.50112300  0.50040900  1
  Ti  Ti0  1  0.49801500  0.00590500  0.50022000  1
  Ti  Ti1  1  0.49708700  0.49757400  0.00869700  1
  Ti  Ti2  1  0.00506600  0.49883400  0.50031100  1
  Fe  Fe0  1  0.88162600  0.88255200  0.88412200  1
  O  O0  1  0.26154800  0.26101100  0.25736100  1
  O  O1  1  0.70794300  0.24899900  0.25006700  1
  O  O2  1  0.24951300  0.70783800  0.25032100  1
  O  O3  1  0.25121900  0.25090700  0.70861700  1
  O  O4  1  0.74506300  0.74370800  0.29263500  1
  O  O5  1  0.75088300  0.29252700  0.74143800  1
  O  O6  1  0.29248500  0.75045000  0.74221900  1
  O  O7  1  0.73996500  0.74007700  0.74368800  1
loop_
_geom_bond_atom_site_label_1
_geom_bond_atom_site_label_2
_geom_bond_distance
_geom_bond_site_symmetry_2
Li0 O1 2.012195 1_455
Li0 O3 2.012983 1_554
Li0 O2 2.013595 1_545
Li0 O0 2.072577 1_555
Li1 O5 2.086213 1_555
Li1 O6 2.086992 1_555
Li1 O4 2.087618 1_555
Li1 O2 2.138710 1_555
Li1 O1 2.139823 1_555
Li1 O3 2.151336 1_555
Fe0 O4 1.999632 1_556
Fe0 O5 2.009636 1_565
Fe0 O6 2.013826 1_655
Fe0 O7 2.078741 1_555
O0 Ti1 2.017469 1_555
O0 Ti0 2.029191 1_555
O0 Ti2 2.033972 1_555
O1 Ti1 1.919330 1_555
O1 Ti0 1.942243 1_555
O2 Ti1 1.916280 1_555
O2 Ti2 1.944258 1_555
O3 Ti0 1.923006 1_555
O3 Ti2 1.929315 1_555
O4 Ti2 1.985213 1_655
O4 Ti0 1.993424 1_565
O5 Ti2 1.972753 1_655
O5 Ti1 2.007245 1_556
O6 Ti0 1.975442 1_565
O6 Ti1 2.003350 1_556
O7 Ti2 2.052502 1_655
O7 Ti0 2.057496 1_565
O7 Ti1 2.077029 1_556
