# generated using pymatgen
data_Li4Sb(TeO4)3
_symmetry_space_group_name_H-M   'P 1'
_cell_length_a   9.11554100
_cell_length_b   5.13337100
_cell_length_c   5.23523175
_cell_angle_alpha   85.77832585
_cell_angle_beta   90.00000000
_cell_angle_gamma   90.00000000
_symmetry_Int_Tables_number   1
_chemical_formula_structural   Li4Sb(TeO4)3
_chemical_formula_sum   'Li4 Sb1 Te3 O12'
_cell_volume   244.30988581
_cell_formula_units_Z   1
loop_
 _symmetry_equiv_pos_site_id
 _symmetry_equiv_pos_as_xyz
  1  'x, y, z'
loop_
 _atom_site_type_symbol
 _atom_site_label
 _atom_site_symmetry_multiplicity
 _atom_site_fract_x
 _atom_site_fract_y
 _atom_site_fract_z
 _atom_site_occupancy
  Li  Li0  1  0.31750600  0.00000000  0.00000000  1
  Li  Li1  1  0.15088700  0.50000000  0.00000000  1
  Li  Li2  1  0.67744100  0.00000000  0.50000000  1
  Li  Li3  1  0.83258200  0.50000000  0.50000000  1
  Sb  Sb0  1  0.89674500  0.00000000  0.00000000  1
  Te  Te0  1  0.59458900  0.50000000  0.00000000  1
  Te  Te1  1  0.08500200  0.00000000  0.50000000  1
  Te  Te2  1  0.39995700  0.50000000  0.50000000  1
  O  O0  1  0.75096600  0.23573300  0.82020500  1
  O  O1  1  0.43564100  0.28827400  0.85090000  1
  O  O2  1  0.05820600  0.21791000  0.79595700  1
  O  O3  1  0.56231200  0.70957700  0.65380200  1
  O  O4  1  0.92030000  0.79464400  0.68567300  1
  O  O5  1  0.22467900  0.79204400  0.69559300  1
  O  O6  1  0.22467900  0.20795600  0.30440700  1
  O  O7  1  0.92030000  0.20535600  0.31432700  1
  O  O8  1  0.56231200  0.29042300  0.34619800  1
  O  O9  1  0.05820600  0.78209000  0.20404300  1
  O  O10  1  0.43564100  0.71172600  0.14910000  1
  O  O11  1  0.75096600  0.76426700  0.17979500  1
loop_
_geom_bond_atom_site_label_1
_geom_bond_atom_site_label_2
_geom_bond_distance
_geom_bond_site_symmetry_2
Li0 O1 1.946464 1_554
Li0 O10 1.946464 1_545
Li0 O6 2.155402 1_555
Li0 O5 2.155402 1_544
Li0 O9 2.793444 1_545
Li0 O2 2.793444 1_554
Li1 O9 2.044379 1_555
Li1 O2 2.044379 1_554
Li1 O5 2.210862 1_554
Li1 O6 2.210862 1_555
Li2 O3 1.948229 1_545
Li2 O8 1.948229 1_555
Li2 O0 2.241061 1_555
Li2 O11 2.241061 1_545
Li2 O4 2.608858 1_545
Li2 O7 2.608858 1_555
Li3 O4 2.021977 1_555
Li3 O7 2.021977 1_555
Li3 O0 2.206611 1_555
Li3 O11 2.206611 1_555
Li3 O8 2.828940 1_555
Li3 O3 2.828940 1_555
O0 Sb0 1.987082 1_556
O0 Te0 2.224014 1_556
O1 Te0 2.003693 1_556
O1 Te2 2.089940 1_555
O2 Te1 1.991679 1_555
O2 Sb0 2.093478 1_456
O3 Te2 2.030654 1_555
O3 Te0 2.059563 1_556
O4 Sb0 2.029949 1_566
O4 Te1 2.039440 1_665
O5 Te1 1.910050 1_565
O5 Te2 2.464725 1_555
O6 Te1 1.910050 1_555
O6 Te2 2.464725 1_555
O7 Sb0 2.029949 1_555
O7 Te1 2.039440 1_655
O8 Te2 2.030654 1_555
O8 Te0 2.059563 1_555
O9 Te1 1.991679 1_565
O9 Sb0 2.093478 1_465
O10 Te0 2.003693 1_555
O10 Te2 2.089940 1_555
O11 Sb0 1.987082 1_565
O11 Te0 2.224014 1_555
