# generated using pymatgen
data_Ti7(Fe3O8)3
_symmetry_space_group_name_H-M   'P 1'
_cell_length_a   5.59324600
_cell_length_b   9.10855952
_cell_length_c   9.12768318
_cell_angle_alpha   68.62816397
_cell_angle_beta   84.82362023
_cell_angle_gamma   85.00529311
_symmetry_Int_Tables_number   1
_chemical_formula_structural   Ti7(Fe3O8)3
_chemical_formula_sum   'Ti7 Fe9 O24'
_cell_volume   430.54266832
_cell_formula_units_Z   1
loop_
 _symmetry_equiv_pos_site_id
 _symmetry_equiv_pos_as_xyz
  1  'x, y, z'
loop_
 _atom_site_type_symbol
 _atom_site_label
 _atom_site_symmetry_multiplicity
 _atom_site_fract_x
 _atom_site_fract_y
 _atom_site_fract_z
 _atom_site_occupancy
  Ti  Ti0  1  0.20348300  0.92772500  0.43274100  1
  Ti  Ti1  1  0.21579100  0.42589600  0.92673800  1
  Ti  Ti2  1  0.29356400  0.57604100  0.56795800  1
  Ti  Ti3  1  0.71169300  0.42823100  0.42552100  1
  Ti  Ti4  1  0.79978700  0.57330200  0.06725700  1
  Ti  Ti5  1  0.78136400  0.07446700  0.57964800  1
  Ti  Ti6  1  0.29387500  0.06848200  0.07590200  1
  Fe  Fe0  1  0.30795900  0.82543200  0.82870500  1
  Fe  Fe1  1  0.71651400  0.92554500  0.92825100  1
  Fe  Fe2  1  0.78713400  0.82485700  0.32018300  1
  Fe  Fe3  1  0.71088300  0.67707700  0.67561300  1
  Fe  Fe4  1  0.20988400  0.67894300  0.17292500  1
  Fe  Fe5  1  0.20555400  0.17667600  0.67983600  1
  Fe  Fe6  1  0.29024700  0.32133000  0.32281300  1
  Fe  Fe7  1  0.79346900  0.32082800  0.82152300  1
  Fe  Fe8  1  0.71554500  0.17972100  0.17654600  1
  O  O0  1  0.15120200  0.96050500  0.62637200  1
  O  O1  1  0.63064800  0.88683500  0.71960200  1
  O  O2  1  0.15567100  0.88885700  0.21853200  1
  O  O3  1  0.01561900  0.71601500  0.52322300  1
  O  O4  1  0.64403600  0.98227700  0.11663700  1
  O  O5  1  0.00058200  0.77793500  0.96181700  1
  O  O6  1  0.47032700  0.78198900  0.47356100  1
  O  O7  1  0.34206700  0.62406000  0.78425500  1
  O  O8  1  0.16425600  0.39526200  0.71845100  1
  O  O9  1  0.51600600  0.71754200  0.01824600  1
  O  O10  1  0.84837300  0.51837600  0.89024300  1
  O  O11  1  0.35059500  0.52069900  0.38857300  1
  O  O12  1  0.14718300  0.47471800  0.11033000  1
  O  O13  1  0.64727200  0.47848000  0.60767700  1
  O  O14  1  0.47774400  0.28290600  0.97333000  1
  O  O15  1  0.84334300  0.61324100  0.27838600  1
  O  O16  1  0.66306000  0.39003500  0.21539500  1
  O  O17  1  0.52042300  0.21755900  0.52458000  1
  O  O18  1  0.03230600  0.21839700  0.02482800  1
  O  O19  1  0.33468700  0.01546500  0.88737100  1
  O  O20  1  0.97658100  0.28081800  0.47855400  1
  O  O21  1  0.33791700  0.11121500  0.28653400  1
  O  O22  1  0.83857600  0.11805700  0.77489900  1
  O  O23  1  0.85478000  0.02420100  0.39644300  1
loop_
_geom_bond_atom_site_label_1
_geom_bond_atom_site_label_2
_geom_bond_distance
_geom_bond_site_symmetry_2
Fe0 O5 1.997161 1_555
Fe0 O1 2.001906 1_555
Fe0 O7 2.008189 1_555
Fe0 O19 2.010038 1_565
Fe0 O0 2.035070 1_555
Fe0 O9 2.058635 1_556
Fe1 O22 1.935795 1_565
Fe1 O5 1.960025 1_655
Fe1 O4 1.968121 1_556
Fe1 O9 2.142778 1_556
Fe1 O1 2.160089 1_555
Fe1 O19 2.233280 1_565
Fe2 O4 2.067673 1_555
Fe2 O15 2.090099 1_555
Fe2 O6 2.127619 1_555
Fe2 O3 2.217742 1_655
Fe2 O2 2.218030 1_655
Fe2 O23 2.238951 1_565
Fe3 O3 2.069704 1_655
Fe3 O1 2.095301 1_555
Fe3 O10 2.129134 1_555
Fe3 O13 2.180086 1_555
Fe3 O7 2.219764 1_555
Fe3 O6 2.250381 1_555
Fe4 O9 2.086977 1_555
Fe4 O2 2.092229 1_555
Fe4 O11 2.141408 1_555
Fe4 O12 2.198666 1_555
Fe4 O5 2.203058 1_554
Fe4 O15 2.219362 1_455
Fe5 O19 2.073925 1_555
Fe5 O17 2.127855 1_555
Fe5 O8 2.135036 1_555
Fe5 O22 2.186994 1_455
Fe5 O20 2.204153 1_455
Fe5 O0 2.244744 1_545
Fe6 O21 2.049553 1_555
Fe6 O12 2.112891 1_555
Fe6 O20 2.124929 1_455
Fe6 O11 2.170179 1_555
Fe6 O17 2.211298 1_555
Fe6 O16 2.261033 1_555
Fe7 O22 2.031834 1_555
Fe7 O14 2.115104 1_555
Fe7 O13 2.140411 1_555
Fe7 O10 2.163124 1_555
Fe7 O18 2.251019 1_656
Fe7 O8 2.252494 1_655
Fe8 O16 2.063990 1_555
Fe8 O18 2.119258 1_655
Fe8 O4 2.138886 1_545
Fe8 O23 2.158583 1_555
Fe8 O14 2.247214 1_554
Fe8 O21 2.291023 1_555
O0 Ti0 1.890641 1_555
O0 Ti5 2.236317 1_465
O1 Ti5 1.930990 1_565
O2 Ti6 1.858903 1_565
O2 Ti0 2.152936 1_555
O3 Ti2 1.897119 1_555
O3 Ti0 2.130799 1_555
O4 Ti6 2.059488 1_565
O5 Ti4 2.126922 1_456
O6 Ti0 1.877083 1_555
O6 Ti2 2.056708 1_555
O7 Ti1 1.947705 1_555
O7 Ti2 2.215717 1_555
O8 Ti2 1.871087 1_555
O8 Ti1 2.067596 1_555
O9 Ti4 1.944806 1_555
O10 Ti4 1.849587 1_556
O10 Ti1 2.159024 1_655
O11 Ti2 1.875141 1_555
O11 Ti3 2.126506 1_555
O12 Ti1 1.884305 1_554
O12 Ti4 2.076812 1_455
O13 Ti3 1.876589 1_555
O13 Ti2 2.103230 1_555
O14 Ti1 1.844006 1_555
O14 Ti6 2.142910 1_556
O15 Ti3 1.890451 1_555
O15 Ti4 2.125226 1_555
O16 Ti4 1.894815 1_555
O16 Ti3 2.114374 1_555
O17 Ti5 1.845324 1_555
O17 Ti3 2.136037 1_555
O18 Ti6 1.879790 1_555
O18 Ti1 2.089412 1_554
O19 Ti6 1.939648 1_556
O20 Ti3 1.881914 1_555
O20 Ti5 2.118475 1_555
O21 Ti0 1.884630 1_545
O21 Ti6 2.134498 1_555
O22 Ti5 2.019159 1_555
O23 Ti5 1.891033 1_555
O23 Ti0 2.071699 1_645
