# generated using pymatgen
data_Ba2Sc2O5
_symmetry_space_group_name_H-M   'P 1'
_cell_length_a   6.30831026
_cell_length_b   6.30831026
_cell_length_c   8.42733906
_cell_angle_alpha   89.10355604
_cell_angle_beta   89.10355604
_cell_angle_gamma   86.39722082
_symmetry_Int_Tables_number   1
_chemical_formula_structural   Ba2Sc2O5
_chemical_formula_sum   'Ba4 Sc4 O10'
_cell_volume   334.62421189
_cell_formula_units_Z   2
loop_
 _symmetry_equiv_pos_site_id
 _symmetry_equiv_pos_as_xyz
  1  'x, y, z'
loop_
 _atom_site_type_symbol
 _atom_site_label
 _atom_site_symmetry_multiplicity
 _atom_site_fract_x
 _atom_site_fract_y
 _atom_site_fract_z
 _atom_site_occupancy
  Ba  Ba0  1  0.73443900  0.80420800  0.30597100  1
  Ba  Ba1  1  0.80420800  0.73443900  0.80597100  1
  Ba  Ba2  1  0.19579200  0.26556100  0.19402900  1
  Ba  Ba3  1  0.26556100  0.19579200  0.69402900  1
  Sc  Sc0  1  0.75682100  0.30113500  0.47832200  1
  Sc  Sc1  1  0.30113500  0.75682100  0.97832200  1
  Sc  Sc2  1  0.69886500  0.24317900  0.02167800  1
  Sc  Sc3  1  0.24317900  0.69886500  0.52167800  1
  O  O0  1  0.50000000  0.00000000  0.00000000  1
  O  O1  1  0.26185700  0.96682400  0.41155100  1
  O  O2  1  0.96682400  0.26185700  0.91155100  1
  O  O3  1  0.77752800  0.22247200  0.25000000  1
  O  O4  1  0.50000000  0.50000000  0.50000000  1
  O  O5  1  0.22247200  0.77752800  0.75000000  1
  O  O6  1  0.50000000  0.50000000  0.00000000  1
  O  O7  1  0.03317600  0.73814300  0.08844900  1
  O  O8  1  0.73814300  0.03317600  0.58844900  1
  O  O9  1  0.00000000  0.50000000  0.50000000  1
loop_
_geom_bond_atom_site_label_1
_geom_bond_atom_site_label_2
_geom_bond_distance
_geom_bond_site_symmetry_2
Ba0 O7 2.627280 1_655
Ba0 O3 2.702858 1_565
Ba0 O8 2.804884 1_565
Ba0 O4 2.954054 1_555
Ba0 O9 2.957421 1_655
Ba0 O0 3.186154 1_565
Ba0 O1 3.208229 1_555
Ba0 O6 3.626225 1_555
Ba1 O8 2.627280 1_565
Ba1 O5 2.702858 1_655
Ba1 O7 2.804884 1_656
Ba1 O6 2.954054 1_556
Ba1 O0 2.957421 1_566
Ba1 O9 3.186154 1_655
Ba1 O2 3.208229 1_555
Ba1 O4 3.626225 1_555
Ba2 O1 2.627280 1_545
Ba2 O3 2.702858 1_455
Ba2 O2 2.804884 1_454
Ba2 O6 2.954054 1_555
Ba2 O0 2.957421 1_555
Ba2 O9 3.186154 1_555
Ba2 O7 3.208229 1_555
Ba2 O4 3.626225 1_555
Ba3 O2 2.627280 1_455
Ba3 O5 2.702858 1_545
Ba3 O1 2.804884 1_545
Ba3 O4 2.954054 1_555
Ba3 O9 2.957421 1_555
Ba3 O0 3.186154 1_556
Ba3 O8 3.208229 1_555
Ba3 O6 3.626225 1_556
O0 Sc2 2.053840 1_555
O0 Sc1 2.053840 1_544
O1 Sc3 1.924858 1_555
O2 Sc2 1.924858 1_556
O3 Sc0 1.994872 1_555
O3 Sc2 1.994872 1_555
O4 Sc0 1.993583 1_555
O4 Sc3 1.993583 1_555
O5 Sc1 1.994872 1_555
O5 Sc3 1.994872 1_555
O6 Sc1 1.993583 1_554
O6 Sc2 1.993583 1_555
O7 Sc1 1.924858 1_554
O8 Sc0 1.924858 1_555
O9 Sc3 2.053840 1_555
O9 Sc0 2.053840 1_455
