# generated using pymatgen
data_Li3FeSi2O7
_symmetry_space_group_name_H-M   'P 1'
_cell_length_a   5.02702500
_cell_length_b   8.96415100
_cell_length_c   12.48805800
_cell_angle_alpha   90.00000000
_cell_angle_beta   90.00000000
_cell_angle_gamma   90.00000000
_symmetry_Int_Tables_number   1
_chemical_formula_structural   Li3FeSi2O7
_chemical_formula_sum   'Li12 Fe4 Si8 O28'
_cell_volume   562.74949728
_cell_formula_units_Z   4
loop_
 _symmetry_equiv_pos_site_id
 _symmetry_equiv_pos_as_xyz
  1  'x, y, z'
loop_
 _atom_site_type_symbol
 _atom_site_label
 _atom_site_symmetry_multiplicity
 _atom_site_fract_x
 _atom_site_fract_y
 _atom_site_fract_z
 _atom_site_occupancy
  Li  Li0  1  0.03376200  0.33800100  0.09096700  1
  Li  Li1  1  0.03376200  0.33800100  0.40903300  1
  Li  Li2  1  0.03096300  0.01512700  0.25000000  1
  Li  Li3  1  0.46903700  0.51512700  0.25000000  1
  Li  Li4  1  0.46623800  0.83800100  0.09096700  1
  Li  Li5  1  0.46623800  0.83800100  0.40903300  1
  Li  Li6  1  0.53376200  0.16199900  0.59096700  1
  Li  Li7  1  0.53376200  0.16199900  0.90903300  1
  Li  Li8  1  0.53096300  0.48487300  0.75000000  1
  Li  Li9  1  0.96903700  0.98487300  0.75000000  1
  Li  Li10  1  0.96623800  0.66199900  0.90903300  1
  Li  Li11  1  0.96623800  0.66199900  0.59096700  1
  Fe  Fe0  1  0.00000000  0.00000000  0.00000000  1
  Fe  Fe1  1  0.00000000  0.00000000  0.50000000  1
  Fe  Fe2  1  0.50000000  0.50000000  0.50000000  1
  Fe  Fe3  1  0.50000000  0.50000000  0.00000000  1
  Si  Si0  1  0.00873900  0.31787200  0.63128100  1
  Si  Si1  1  0.00873900  0.31787200  0.86871900  1
  Si  Si2  1  0.49126100  0.81787200  0.63128100  1
  Si  Si3  1  0.49126100  0.81787200  0.86871900  1
  Si  Si4  1  0.50873900  0.18212800  0.13128100  1
  Si  Si5  1  0.50873900  0.18212800  0.36871900  1
  Si  Si6  1  0.99126100  0.68212800  0.13128100  1
  Si  Si7  1  0.99126100  0.68212800  0.36871900  1
  O  O0  1  0.06930700  0.86004000  0.12874900  1
  O  O1  1  0.06930700  0.86004000  0.37125100  1
  O  O2  1  0.09016300  0.61207200  0.25000000  1
  O  O3  1  0.16646700  0.60059100  0.03822700  1
  O  O4  1  0.16646700  0.60059100  0.46177300  1
  O  O5  1  0.17380100  0.85263600  0.61644600  1
  O  O6  1  0.17380100  0.85263600  0.88355400  1
  O  O7  1  0.32619900  0.35263600  0.61644600  1
  O  O8  1  0.32619900  0.35263600  0.88355400  1
  O  O9  1  0.33353300  0.10059100  0.03822700  1
  O  O10  1  0.33353300  0.10059100  0.46177300  1
  O  O11  1  0.40983700  0.11207200  0.25000000  1
  O  O12  1  0.43069300  0.36004000  0.12874900  1
  O  O13  1  0.43069300  0.36004000  0.37125100  1
  O  O14  1  0.56930700  0.63996000  0.62874900  1
  O  O15  1  0.56930700  0.63996000  0.87125100  1
  O  O16  1  0.59016300  0.88792800  0.75000000  1
  O  O17  1  0.66646700  0.89940900  0.53822700  1
  O  O18  1  0.66646700  0.89940900  0.96177300  1
  O  O19  1  0.67380100  0.64736400  0.11644600  1
  O  O20  1  0.67380100  0.64736400  0.38355400  1
  O  O21  1  0.82619900  0.14736400  0.38355400  1
  O  O22  1  0.82619900  0.14736400  0.11644600  1
  O  O23  1  0.83353300  0.39940900  0.53822700  1
  O  O24  1  0.83353300  0.39940900  0.96177300  1
  O  O25  1  0.90983700  0.38792800  0.75000000  1
  O  O26  1  0.93069300  0.13996000  0.62874900  1
  O  O27  1  0.93069300  0.13996000  0.87125100  1
loop_
_geom_bond_atom_site_label_1
_geom_bond_atom_site_label_2
_geom_bond_distance
_geom_bond_site_symmetry_2
Li0 O24 1.979691 1_454
Li0 O22 2.027390 1_455
Li0 O12 2.059902 1_555
Li0 O3 2.533702 1_555
Li0 O9 2.689581 1_555
Li1 O23 1.979691 1_455
Li1 O21 2.027390 1_455
Li1 O13 2.059902 1_555
Li1 O4 2.533702 1_555
Li1 O10 2.689581 1_555
Li2 O1 2.064618 1_545
Li2 O0 2.064618 1_545
Li2 O11 2.093501 1_555
Li2 O21 2.290498 1_455
Li2 O22 2.290498 1_455
Li3 O12 2.064618 1_555
Li3 O13 2.064618 1_555
Li3 O2 2.093501 1_555
Li3 O20 2.290498 1_555
Li3 O19 2.290498 1_555
Li4 O18 1.979691 1_554
Li4 O19 2.027390 1_555
Li4 O0 2.059902 1_555
Li4 O9 2.533702 1_565
Li4 O3 2.689581 1_555
Li5 O17 1.979691 1_555
Li5 O20 2.027390 1_555
Li5 O1 2.059902 1_555
Li5 O10 2.533702 1_565
Li5 O4 2.689581 1_555
Li6 O10 1.979691 1_555
Li6 O7 2.027390 1_555
Li6 O26 2.059902 1_555
Li6 O17 2.533702 1_545
Li6 O23 2.689581 1_555
Li7 O9 1.979691 1_556
Li7 O8 2.027390 1_555
Li7 O27 2.059902 1_555
Li7 O18 2.533702 1_545
Li7 O24 2.689581 1_555
Li8 O14 2.064618 1_555
Li8 O15 2.064618 1_555
Li8 O25 2.093501 1_555
Li8 O8 2.290498 1_555
Li8 O7 2.290498 1_555
Li9 O26 2.064618 1_565
Li9 O27 2.064618 1_565
Li9 O16 2.093501 1_555
Li9 O6 2.290498 1_655
Li9 O5 2.290498 1_655
Li10 O3 1.979691 1_656
Li10 O6 2.027390 1_655
Li10 O15 2.059902 1_555
Li10 O24 2.533702 1_555
Li10 O18 2.689581 1_555
Li11 O4 1.979691 1_655
Li11 O5 2.027390 1_655
Li11 O14 2.059902 1_555
Li11 O23 2.533702 1_555
Li11 O17 2.689581 1_555
Fe0 O9 1.962710 1_555
Fe0 O18 1.962710 1_444
Fe0 O27 2.068953 1_454
Fe0 O0 2.068953 1_545
Fe0 O6 2.150123 1_544
Fe0 O22 2.150123 1_455
Fe1 O10 1.962710 1_555
Fe1 O17 1.962710 1_445
Fe1 O26 2.068953 1_455
Fe1 O1 2.068953 1_545
Fe1 O5 2.150123 1_545
Fe1 O21 2.150123 1_455
Fe2 O4 1.962710 1_555
Fe2 O23 1.962710 1_555
Fe2 O13 2.068953 1_555
Fe2 O14 2.068953 1_555
Fe2 O7 2.150123 1_555
Fe2 O20 2.150123 1_555
Fe3 O3 1.962710 1_555
Fe3 O24 1.962710 1_554
Fe3 O12 2.068953 1_555
Fe3 O15 2.068953 1_554
Fe3 O19 2.150123 1_555
Fe3 O8 2.150123 1_554
O0 Si6 1.642685 1_455
O1 Si7 1.642685 1_455
O2 Si7 1.685105 1_455
O2 Si6 1.685105 1_455
O3 Si6 1.631064 1_455
O4 Si7 1.631064 1_455
O5 Si2 1.636541 1_555
O6 Si3 1.636541 1_555
O7 Si0 1.636541 1_555
O8 Si1 1.636541 1_555
O9 Si4 1.631064 1_555
O10 Si5 1.631064 1_555
O11 Si5 1.685105 1_555
O11 Si4 1.685105 1_555
O12 Si4 1.642685 1_555
O13 Si5 1.642685 1_555
O14 Si2 1.642685 1_555
O15 Si3 1.642685 1_555
O16 Si3 1.685105 1_555
O16 Si2 1.685105 1_555
O17 Si2 1.631064 1_555
O18 Si3 1.631064 1_555
O19 Si6 1.636541 1_555
O20 Si7 1.636541 1_555
O21 Si5 1.636541 1_555
O22 Si4 1.636541 1_555
O23 Si0 1.631064 1_655
O24 Si1 1.631064 1_655
O25 Si1 1.685105 1_655
O25 Si0 1.685105 1_655
O26 Si0 1.642685 1_655
O27 Si1 1.642685 1_655
