# generated using pymatgen
data_Li3Mn2P4HO14
_symmetry_space_group_name_H-M   'P 1'
_cell_length_a   5.26499880
_cell_length_b   12.83905191
_cell_length_c   9.01470034
_cell_angle_alpha   75.99261910
_cell_angle_beta   92.60155092
_cell_angle_gamma   93.35910531
_symmetry_Int_Tables_number   1
_chemical_formula_structural   Li3Mn2P4HO14
_chemical_formula_sum   'Li6 Mn4 P8 H2 O28'
_cell_volume   589.92982781
_cell_formula_units_Z   2
loop_
 _symmetry_equiv_pos_site_id
 _symmetry_equiv_pos_as_xyz
  1  'x, y, z'
loop_
 _atom_site_type_symbol
 _atom_site_label
 _atom_site_symmetry_multiplicity
 _atom_site_fract_x
 _atom_site_fract_y
 _atom_site_fract_z
 _atom_site_occupancy
  Li  Li0  1  0.24976300  0.49998000  0.24986200  1
  Li  Li1  1  0.74999000  0.50000100  0.75015200  1
  Li  Li2  1  0.78676500  0.99461800  0.61122500  1
  Li  Li3  1  0.28672200  0.99463800  0.11107200  1
  Li  Li4  1  0.21325800  0.00537100  0.38875700  1
  Li  Li5  1  0.71343200  0.00535400  0.88885500  1
  Mn  Mn0  1  0.76516800  0.76442200  0.67923700  1
  Mn  Mn1  1  0.23534000  0.23538500  0.32062400  1
  Mn  Mn2  1  0.26508800  0.76433900  0.17974600  1
  Mn  Mn3  1  0.73541100  0.23564100  0.82055800  1
  P  P0  1  0.25798400  0.62775300  0.84392900  1
  P  P1  1  0.75786700  0.62771600  0.34395800  1
  P  P2  1  0.74195800  0.37228300  0.15606200  1
  P  P3  1  0.24218900  0.37228900  0.65603100  1
  P  P4  1  0.28145900  0.85959900  0.83725200  1
  P  P5  1  0.78141800  0.85962200  0.33723300  1
  P  P6  1  0.71848400  0.14043700  0.16273300  1
  P  P7  1  0.21861600  0.14043500  0.66277700  1
  H  H0  1  0.49987700  0.50000600  0.99998000  1
  H  H1  1  0.99995900  0.50000300  0.50001200  1
  O  O0  1  0.99636700  0.62910100  0.76484000  1
  O  O1  1  0.49617700  0.62906800  0.26496600  1
  O  O2  1  0.00355500  0.37085600  0.23514100  1
  O  O3  1  0.50385900  0.37091200  0.73503700  1
  O  O4  1  0.08084400  0.87388200  0.70706300  1
  O  O5  1  0.58074300  0.87386800  0.20709200  1
  O  O6  1  0.91906400  0.12610800  0.29293400  1
  O  O7  1  0.41933300  0.12619000  0.79289200  1
  O  O8  1  0.21258000  0.90486100  0.97179000  1
  O  O9  1  0.71263000  0.90488100  0.47178700  1
  O  O10  1  0.78730100  0.09512600  0.02822500  1
  O  O11  1  0.28728800  0.09512700  0.52822200  1
  O  O12  1  0.27828200  0.73149200  0.92410800  1
  O  O13  1  0.77827400  0.73150400  0.42409600  1
  O  O14  1  0.72160400  0.26850400  0.07586200  1
  O  O15  1  0.22159300  0.26851400  0.57590000  1
  O  O16  1  0.28881200  0.53270900  0.98281800  1
  O  O17  1  0.78885000  0.53271300  0.48284800  1
  O  O18  1  0.71103800  0.46729200  0.01714500  1
  O  O19  1  0.21112200  0.46731600  0.51716300  1
  O  O20  1  0.44358400  0.10878100  0.21575200  1
  O  O21  1  0.94375600  0.10876500  0.71583800  1
  O  O22  1  0.55635000  0.89122700  0.78425500  1
  O  O23  1  0.05629100  0.89123900  0.28420900  1
  O  O24  1  0.47847300  0.64444500  0.73508400  1
  O  O25  1  0.97818900  0.64444400  0.23499100  1
  O  O26  1  0.52139500  0.35555200  0.26485500  1
  O  O27  1  0.02189800  0.35563300  0.76503200  1
loop_
_geom_bond_atom_site_label_1
_geom_bond_atom_site_label_2
_geom_bond_distance
_geom_bond_site_symmetry_2
Li0 O2 2.070124 1_555
Li0 O1 2.071183 1_555
Li0 O16 2.357785 1_554
Li0 O19 2.359858 1_555
Li0 O26 2.382010 1_555
Li0 O25 2.382359 1_455
Li1 O0 2.070328 1_555
Li1 O3 2.070358 1_555
Li1 O18 2.357289 1_556
Li1 O17 2.359980 1_555
Li1 O24 2.381678 1_555
Li1 O27 2.382492 1_655
Li2 O9 1.914064 1_555
Li2 O21 2.043697 1_565
Li2 O22 2.155814 1_555
Li2 O4 2.249034 1_655
Li3 O8 1.913338 1_554
Li3 O20 2.043796 1_565
Li3 O23 2.156482 1_555
Li3 O5 2.249401 1_555
Li4 O11 1.914363 1_555
Li4 O23 2.043137 1_545
Li4 O20 2.155517 1_555
Li4 O6 2.249448 1_455
Li5 O10 1.913720 1_556
Li5 O22 2.043581 1_545
Li5 O21 2.155581 1_555
Li5 O7 2.250136 1_555
Mn0 O24 2.079853 1_555
Mn0 O0 2.146926 1_555
Mn0 O4 2.158566 1_655
Mn0 O9 2.281404 1_555
Mn0 O22 2.409550 1_555
Mn0 O13 2.441694 1_555
Mn1 O26 2.079014 1_555
Mn1 O2 2.150078 1_555
Mn1 O6 2.159083 1_455
Mn1 O11 2.280288 1_555
Mn1 O20 2.405180 1_555
Mn1 O15 2.444262 1_555
Mn2 O25 2.079412 1_455
Mn2 O1 2.145621 1_555
Mn2 O5 2.158018 1_555
Mn2 O8 2.284711 1_554
Mn2 O23 2.407582 1_555
Mn2 O12 2.445779 1_554
Mn3 O27 2.078942 1_655
Mn3 O3 2.147451 1_555
Mn3 O7 2.159688 1_555
Mn3 O10 2.282612 1_556
Mn3 O21 2.407449 1_555
Mn3 O14 2.443160 1_556
H0 O16 1.201144 1_555
H0 O18 1.201672 1_556
H1 O17 1.201396 1_555
H1 O19 1.201553 1_655
O0 P0 1.521037 1_655
O1 P1 1.521004 1_555
O2 P2 1.520856 1_455
O3 P3 1.520948 1_555
O4 P4 1.527291 1_555
O5 P5 1.527207 1_555
O6 P6 1.527231 1_555
O7 P7 1.527188 1_555
O8 P4 1.531652 1_555
O9 P5 1.531617 1_555
O10 P6 1.531682 1_555
O11 P7 1.531814 1_555
O12 P4 1.641082 1_555
O12 P0 1.658364 1_555
O13 P5 1.641227 1_555
O13 P1 1.658700 1_555
O14 P6 1.640667 1_555
O14 P2 1.658947 1_555
O15 P7 1.640837 1_555
O15 P3 1.658508 1_555
O16 P0 1.532375 1_555
O17 P1 1.532156 1_555
O18 P2 1.532315 1_555
O19 P3 1.532271 1_555
O20 P6 1.545402 1_555
O21 P7 1.545338 1_655
O22 P4 1.545252 1_555
O23 P5 1.545215 1_455
O24 P0 1.526032 1_555
O25 P1 1.526026 1_555
O26 P2 1.526005 1_555
O27 P3 1.526151 1_555
