# generated using pymatgen
data_Li5V3P8O29
_symmetry_space_group_name_H-M   'P 1'
_cell_length_a   9.75795887
_cell_length_b   9.75795887
_cell_length_c   13.99921490
_cell_angle_alpha   89.91849810
_cell_angle_beta   89.91849810
_cell_angle_gamma   60.07601301
_symmetry_Int_Tables_number   1
_chemical_formula_structural   Li5V3P8O29
_chemical_formula_sum   'Li10 V6 P16 O58'
_cell_volume   1155.27090085
_cell_formula_units_Z   2
loop_
 _symmetry_equiv_pos_site_id
 _symmetry_equiv_pos_as_xyz
  1  'x, y, z'
loop_
 _atom_site_type_symbol
 _atom_site_label
 _atom_site_symmetry_multiplicity
 _atom_site_fract_x
 _atom_site_fract_y
 _atom_site_fract_z
 _atom_site_occupancy
  Li  Li0  1  0.10346600  0.66186700  0.94184200  1
  Li  Li1  1  0.66186700  0.10346600  0.44184200  1
  Li  Li2  1  0.09459000  0.23707800  0.43965300  1
  Li  Li3  1  0.76292200  0.90541000  0.06034700  1
  Li  Li4  1  0.23707800  0.09459000  0.93965300  1
  Li  Li5  1  0.90541000  0.76292200  0.56034700  1
  Li  Li6  1  0.33813300  0.89653400  0.55815800  1
  Li  Li7  1  0.89653400  0.33813300  0.05815800  1
  Li  Li8  1  0.00000000  0.00000000  0.50000000  1
  Li  Li9  1  0.00000000  0.00000000  0.00000000  1
  V  V0  1  0.56479000  0.00165600  0.24682700  1
  V  V1  1  0.43521000  0.99834400  0.75317300  1
  V  V2  1  0.00165600  0.56479000  0.74682700  1
  V  V3  1  0.99834400  0.43521000  0.25317300  1
  V  V4  1  0.43449600  0.56550400  0.25000000  1
  V  V5  1  0.56550400  0.43449600  0.75000000  1
  P  P0  1  0.22570100  0.69347800  0.65553000  1
  P  P1  1  0.08832000  0.68694600  0.16099700  1
  P  P2  1  0.69347800  0.22570100  0.15553000  1
  P  P3  1  0.33575100  0.33199600  0.37007900  1
  P  P4  1  0.33199600  0.33575100  0.87007900  1
  P  P5  1  0.68694600  0.08832000  0.66099700  1
  P  P6  1  0.77642600  0.90990800  0.84392800  1
  P  P7  1  0.09009200  0.22357400  0.65607200  1
  P  P8  1  0.90990800  0.77642600  0.34392800  1
  P  P9  1  0.22357400  0.09009200  0.15607200  1
  P  P10  1  0.31305400  0.91168000  0.33900300  1
  P  P11  1  0.66800400  0.66424900  0.12992100  1
  P  P12  1  0.66424900  0.66800400  0.62992100  1
  P  P13  1  0.30652200  0.77429900  0.84447000  1
  P  P14  1  0.91168000  0.31305400  0.83900300  1
  P  P15  1  0.77429900  0.30652200  0.34447000  1
  O  O0  1  0.20578000  0.78558800  0.92823600  1
  O  O1  1  0.25843300  0.65893300  0.16561400  1
  O  O2  1  0.98371500  0.78690500  0.43479100  1
  O  O3  1  0.08443300  0.66192500  0.65697700  1
  O  O4  1  0.38338000  0.53726200  0.66890300  1
  O  O5  1  0.33288000  0.47890000  0.32011000  1
  O  O6  1  0.53726200  0.38338000  0.16890300  1
  O  O7  1  0.78558800  0.20578000  0.42823600  1
  O  O8  1  0.65893300  0.25843300  0.66561400  1
  O  O9  1  0.18619600  0.48887600  0.82941500  1
  O  O10  1  0.08802700  0.53135500  0.17277900  1
  O  O11  1  0.47890000  0.33288000  0.82011000  1
  O  O12  1  0.33868600  0.33392400  0.47622400  1
  O  O13  1  0.33392400  0.33868600  0.97622400  1
  O  O14  1  0.48887600  0.18619600  0.32941600  1
  O  O15  1  0.09093300  0.37994100  0.67061400  1
  O  O16  1  0.18785900  0.32404400  0.33207900  1
  O  O17  1  0.66192500  0.08443300  0.15697700  1
  O  O18  1  0.79697700  0.99914300  0.75245600  1
  O  O19  1  0.78690500  0.98371500  0.93479100  1
  O  O20  1  0.77708000  0.00369100  0.57180600  1
  O  O21  1  0.53135500  0.08802700  0.67277900  1
  O  O22  1  0.32404400  0.18785900  0.83207900  1
  O  O23  1  0.73872500  0.91909500  0.33687300  1
  O  O24  1  0.37994100  0.09093300  0.17061400  1
  O  O25  1  0.08090500  0.26127500  0.16312700  1
  O  O26  1  0.99914300  0.79697700  0.25245600  1
  O  O27  1  0.00369100  0.77708000  0.07180600  1
  O  O28  1  0.99630900  0.22292000  0.92819400  1
  O  O29  1  0.91909500  0.73872500  0.83687300  1
  O  O30  1  0.62005900  0.90906700  0.82938600  1
  O  O31  1  0.26127500  0.08090500  0.66312700  1
  O  O32  1  0.67595600  0.81214100  0.16792100  1
  O  O33  1  0.46864500  0.91197300  0.32722100  1
  O  O34  1  0.22292000  0.99630900  0.42819400  1
  O  O35  1  0.21309500  0.01628500  0.06520900  1
  O  O36  1  0.20302300  0.00085700  0.24754400  1
  O  O37  1  0.33807500  0.91556700  0.84302300  1
  O  O38  1  0.81214100  0.67595600  0.66792100  1
  O  O39  1  0.90906700  0.62005900  0.32938600  1
  O  O40  1  0.51112400  0.81380400  0.67058500  1
  O  O41  1  0.66131400  0.66607600  0.52377600  1
  O  O42  1  0.66607600  0.66131400  0.02377600  1
  O  O43  1  0.52110000  0.66712000  0.17989000  1
  O  O44  1  0.91197300  0.46864500  0.82722100  1
  O  O45  1  0.81380400  0.51112400  0.17058500  1
  O  O46  1  0.34106700  0.74156700  0.33438600  1
  O  O47  1  0.20289700  0.79710300  0.75000000  1
  O  O48  1  0.21441200  0.79422000  0.57176400  1
  O  O49  1  0.46273800  0.61662000  0.83109700  1
  O  O50  1  0.66712000  0.52110000  0.67989000  1
  O  O51  1  0.61662000  0.46273800  0.33109700  1
  O  O52  1  0.91556700  0.33807500  0.34302300  1
  O  O53  1  0.01628500  0.21309500  0.56520900  1
  O  O54  1  0.00085700  0.20302300  0.74754400  1
  O  O55  1  0.74156700  0.34106700  0.83438600  1
  O  O56  1  0.79422000  0.21441200  0.07176400  1
  O  O57  1  0.79710300  0.20289700  0.25000000  1
loop_
_geom_bond_atom_site_label_1
_geom_bond_atom_site_label_2
_geom_bond_distance
_geom_bond_site_symmetry_2
Li0 O0 1.921421 1_555
Li0 O27 2.104934 1_556
Li0 O29 2.148667 1_455
Li0 O9 2.150038 1_555
Li1 O7 1.921421 1_555
Li1 O20 2.104934 1_555
Li1 O23 2.148667 1_545
Li1 O14 2.150027 1_555
Li2 O53 1.975218 1_555
Li2 O52 2.034234 1_455
Li2 O34 2.044216 1_545
Li2 O16 2.139944 1_555
Li3 O19 1.975218 1_554
Li3 O17 2.034234 1_565
Li3 O27 2.044216 1_655
Li3 O32 2.139944 1_555
Li4 O35 1.975218 1_556
Li4 O37 2.034234 1_545
Li4 O28 2.044216 1_455
Li4 O22 2.139944 1_555
Li5 O2 1.975218 1_555
Li5 O3 2.034234 1_655
Li5 O20 2.044216 1_565
Li5 O38 2.139944 1_555
Li6 O48 1.921421 1_555
Li6 O34 2.104934 1_555
Li6 O31 2.148667 1_565
Li6 O40 2.150038 1_555
Li7 O56 1.921421 1_555
Li7 O28 2.104934 1_554
Li7 O25 2.148667 1_655
Li7 O45 2.150038 1_555
Li8 O48 2.286365 1_545
Li8 O7 2.286365 1_455
Li8 O53 2.349013 1_555
Li8 O2 2.349013 1_445
Li8 O20 2.378904 1_455
Li8 O34 2.378904 1_545
Li9 O56 2.286365 1_455
Li9 O0 2.286365 1_544
Li9 O35 2.349013 1_555
Li9 O19 2.349013 1_444
Li9 O27 2.378904 1_545
Li9 O28 2.378904 1_454
O0 P13 1.497555 1_555
O1 P1 1.543341 1_555
O1 V4 1.902190 1_555
O2 P8 1.491179 1_555
O3 P0 1.555246 1_555
O3 V2 1.972443 1_555
O4 P0 1.544686 1_555
O4 V5 1.917617 1_555
O5 P3 1.581813 1_555
O5 V4 1.868573 1_555
O6 P2 1.544686 1_555
O6 V4 1.917617 1_555
O7 P15 1.497555 1_555
O8 P5 1.543341 1_555
O8 V5 1.902190 1_555
O9 P4 1.568355 1_555
O9 V2 1.949546 1_555
O10 P1 1.528370 1_555
O10 V3 1.930283 1_455
O11 P4 1.581813 1_555
O11 V5 1.868573 1_555
O12 P3 1.486590 1_555
O13 P4 1.486590 1_555
O14 P3 1.568350 1_555
O14 V0 1.949554 1_555
O15 P7 1.543706 1_555
O15 V2 1.893632 1_555
O16 P3 1.576593 1_555
O16 V3 1.953898 1_455
O17 P2 1.555246 1_555
O17 V0 1.972443 1_555
O18 P6 1.615088 1_555
O18 P5 1.617994 1_565
O19 P6 1.491179 1_555
O20 P5 1.513173 1_555
O21 P5 1.528370 1_555
O21 V1 1.930283 1_545
O22 P4 1.576593 1_555
O22 V1 1.953898 1_545
O23 P8 1.555008 1_555
O23 V0 1.938486 1_565
O24 P9 1.543706 1_555
O24 V0 1.893632 1_555
O25 P9 1.555008 1_555
O25 V3 1.938486 1_455
O26 P8 1.615088 1_555
O26 P1 1.617994 1_655
O27 P1 1.513173 1_555
O28 P14 1.513173 1_555
O29 P6 1.555008 1_555
O29 V2 1.938486 1_655
O30 P6 1.543706 1_555
O30 V1 1.893632 1_555
O31 P7 1.555008 1_555
O31 V1 1.938486 1_545
O32 P11 1.576593 1_555
O32 V0 1.953898 1_565
O33 P10 1.528370 1_555
O33 V0 1.930283 1_565
O34 P10 1.513173 1_555
O35 P9 1.491179 1_555
O36 P9 1.615088 1_555
O36 P10 1.617994 1_545
O37 P13 1.555246 1_555
O37 V1 1.972443 1_555
O38 P12 1.576593 1_555
O38 V2 1.953898 1_655
O39 P8 1.543706 1_555
O39 V3 1.893632 1_555
O40 P12 1.568355 1_555
O40 V1 1.949546 1_555
O41 P12 1.486590 1_555
O42 P11 1.486590 1_555
O43 P11 1.581813 1_555
O43 V4 1.868573 1_555
O44 P14 1.528370 1_555
O44 V2 1.930283 1_655
O45 P11 1.568355 1_555
O45 V3 1.949546 1_555
O46 P10 1.543341 1_555
O46 V4 1.902190 1_555
O47 P13 1.612290 1_555
O47 P0 1.612290 1_555
O48 P0 1.497555 1_555
O49 P13 1.544686 1_555
O49 V5 1.917617 1_555
O50 P12 1.581813 1_555
O50 V5 1.868573 1_555
O51 P15 1.544686 1_555
O51 V4 1.917617 1_555
O52 P15 1.555246 1_555
O52 V3 1.972443 1_555
O53 P7 1.491179 1_555
O54 P7 1.615088 1_555
O54 P14 1.617994 1_455
O55 P14 1.543341 1_555
O55 V5 1.902190 1_555
O56 P2 1.497555 1_555
O57 P15 1.612290 1_555
O57 P2 1.612290 1_555
