# generated using pymatgen
data_K3TaO2F7
_symmetry_space_group_name_H-M   'P 1'
_cell_length_a   7.25164700
_cell_length_b   9.52096600
_cell_length_c   14.10889600
_cell_angle_alpha   90.00000000
_cell_angle_beta   90.00000000
_cell_angle_gamma   90.00000000
_symmetry_Int_Tables_number   1
_chemical_formula_structural   K3TaO2F7
_chemical_formula_sum   'K12 Ta4 O8 F28'
_cell_volume   974.11605561
_cell_formula_units_Z   4
loop_
 _symmetry_equiv_pos_site_id
 _symmetry_equiv_pos_as_xyz
  1  'x, y, z'
loop_
 _atom_site_type_symbol
 _atom_site_label
 _atom_site_symmetry_multiplicity
 _atom_site_fract_x
 _atom_site_fract_y
 _atom_site_fract_z
 _atom_site_occupancy
  K  K0  1  0.23767200  0.49839000  0.34395600  1
  K  K1  1  0.76232800  0.99839000  0.65604400  1
  K  K2  1  0.26232800  0.99839000  0.84395600  1
  K  K3  1  0.73767200  0.49839000  0.15604400  1
  K  K4  1  0.78419300  0.76250800  0.34661500  1
  K  K5  1  0.21580700  0.26250800  0.65338500  1
  K  K6  1  0.71580700  0.26250800  0.84661500  1
  K  K7  1  0.28419300  0.76250800  0.15338500  1
  K  K8  1  0.27257600  0.23623200  0.15781500  1
  K  K9  1  0.72742400  0.73623200  0.84218500  1
  K  K10  1  0.22742400  0.73623200  0.65781500  1
  K  K11  1  0.77257600  0.23623200  0.34218500  1
  Ta  Ta0  1  0.21543300  0.99861300  0.42883700  1
  Ta  Ta1  1  0.78456700  0.49861300  0.57116300  1
  Ta  Ta2  1  0.28456700  0.49861300  0.92883700  1
  Ta  Ta3  1  0.71543300  0.99861300  0.07116300  1
  O  O0  1  0.48521300  0.91690800  0.44596300  1
  O  O1  1  0.51478700  0.41690800  0.55403700  1
  O  O2  1  0.01478700  0.41690800  0.94596300  1
  O  O3  1  0.98521300  0.91690800  0.05403700  1
  O  O4  1  0.49374400  0.06034100  0.44849400  1
  O  O5  1  0.50625600  0.56034100  0.55150600  1
  O  O6  1  0.00625600  0.56034100  0.94849400  1
  O  O7  1  0.99374400  0.06034100  0.05150600  1
  F  F0  1  0.94884900  0.00685800  0.41259400  1
  F  F1  1  0.05115100  0.50685800  0.58740600  1
  F  F2  1  0.55115100  0.50685800  0.91259400  1
  F  F3  1  0.44884900  0.00685800  0.08740600  1
  F  F4  1  0.25848100  0.00533400  0.29433600  1
  F  F5  1  0.74151900  0.50533400  0.70566400  1
  F  F6  1  0.24151900  0.50533400  0.79433600  1
  F  F7  1  0.75848100  0.00533400  0.20566400  1
  F  F8  1  0.18343800  0.20279500  0.43618100  1
  F  F9  1  0.81656200  0.70279500  0.56381900  1
  F  F10  1  0.31656200  0.70279500  0.93618100  1
  F  F11  1  0.68343800  0.20279500  0.06381900  1
  F  F12  1  0.16190100  0.79693800  0.42853700  1
  F  F13  1  0.83809900  0.29693800  0.57146300  1
  F  F14  1  0.33809900  0.29693800  0.92853700  1
  F  F15  1  0.66190100  0.79693800  0.07146300  1
  F  F16  1  0.19300500  0.99501700  0.56558400  1
  F  F17  1  0.80699500  0.49501700  0.43441600  1
  F  F18  1  0.30699500  0.49501700  0.06558400  1
  F  F19  1  0.69300500  0.99501700  0.93441600  1
  F  F20  1  0.98882300  0.67061900  0.21853800  1
  F  F21  1  0.01117700  0.17061900  0.78146200  1
  F  F22  1  0.51117700  0.17061900  0.71853800  1
  F  F23  1  0.48882300  0.67061900  0.28146200  1
  F  F24  1  0.50481800  0.34964600  0.26142100  1
  F  F25  1  0.49518200  0.84964600  0.73857900  1
  F  F26  1  0.99518200  0.84964600  0.76142100  1
  F  F27  1  0.00481800  0.34964600  0.23857900  1
loop_
_geom_bond_atom_site_label_1
_geom_bond_atom_site_label_2
_geom_bond_distance
_geom_bond_site_symmetry_2
K0 O5 3.565992 1_555
K1 O4 3.565992 1_565
K2 O7 3.565992 1_466
K3 O6 3.565992 1_654
K4 O0 2.970924 1_555
K5 O1 2.970924 1_555
K6 O2 2.970924 1_655
K7 O3 2.970924 1_455
K8 O7 3.023676 1_455
K9 O6 3.023676 1_655
K10 O5 3.023676 1_555
K11 O4 3.023676 1_555
O0 O4 1.367488 1_565
O0 Ta0 2.119158 1_555
O1 O5 1.367488 1_555
O1 Ta1 2.119158 1_555
O2 O6 1.367488 1_555
O2 Ta2 2.119158 1_555
O3 O7 1.367488 1_565
O3 Ta3 2.119158 1_555
O4 Ta0 2.120260 1_545
O5 Ta1 2.120260 1_555
O6 Ta2 2.120260 1_555
O7 Ta3 2.120260 1_545
F0 Ta0 1.948291 1_645
F0 F12 2.536163 1_645
F0 F8 2.546528 1_655
F0 K11 2.718466 1_555
F0 K4 2.775720 1_545
F1 Ta1 1.948291 1_455
F1 F13 2.536163 1_455
F1 F9 2.546528 1_455
F1 K10 2.718466 1_555
F1 K5 2.775720 1_555
F2 Ta2 1.948291 1_555
F2 K9 2.718466 1_555
F2 K6 2.775720 1_555
F3 Ta3 1.948291 1_545
F3 K8 2.718466 1_555
F3 K7 2.775720 1_545
F4 Ta0 1.924230 1_545
F4 K8 2.924616 1_555
F4 K7 3.055258 1_545
F5 Ta1 1.924230 1_555
F5 K9 2.924616 1_555
F5 K6 3.055258 1_555
F6 Ta2 1.924230 1_555
F6 K10 2.924616 1_555
F6 K5 3.055258 1_555
F7 Ta3 1.924230 1_545
F7 K11 2.924616 1_555
F7 K4 3.055258 1_545
F8 Ta0 1.960546 1_545
F8 O4 2.633109 1_555
F8 K0 3.125435 1_555
F8 K5 3.125625 1_555
F9 Ta1 1.960546 1_555
F9 O5 2.633109 1_555
F9 K1 3.125435 1_555
F9 K4 3.125625 1_555
F10 Ta2 1.960546 1_555
F10 F2 2.546528 1_555
F10 O6 2.633109 1_555
F10 F18 2.692875 1_556
F10 K2 3.125435 1_555
F10 K7 3.125625 1_556
F10 F25 3.377170 1_555
F11 Ta3 1.960546 1_545
F11 F3 2.546528 1_555
F11 O7 2.633109 1_555
F11 F19 2.692875 1_544
F11 K3 3.125435 1_555
F11 K6 3.125625 1_554
F11 F24 3.377170 1_555
F12 Ta0 1.958993 1_555
F12 O0 2.619547 1_555
F12 F16 2.710396 1_555
F12 K4 2.990911 1_455
F12 K0 3.131388 1_555
F12 K10 3.320263 1_555
F12 F23 3.372338 1_555
F13 Ta1 1.958993 1_555
F13 O1 2.619547 1_555
F13 F17 2.710396 1_555
F13 K5 2.990911 1_655
F13 K1 3.131388 1_545
F13 K11 3.320263 1_555
F13 F22 3.372338 1_555
F14 Ta2 1.958993 1_555
F14 F2 2.536163 1_555
F14 O2 2.619547 1_555
F14 F18 2.710396 1_556
F14 K6 2.990911 1_555
F14 K2 3.131388 1_545
F14 K8 3.320263 1_556
F14 F21 3.372338 1_555
F15 Ta3 1.958993 1_555
F15 F3 2.536163 1_565
F15 O3 2.619547 1_555
F15 F19 2.710396 1_554
F15 K7 2.990911 1_555
F15 K3 3.131388 1_555
F15 K9 3.320263 1_554
F15 F20 3.372338 1_555
F16 Ta0 1.936495 1_555
F16 F8 2.692875 1_565
F16 K10 2.797560 1_555
F16 K5 2.836892 1_565
F16 K1 3.373991 1_455
F17 Ta1 1.936495 1_555
F17 F9 2.692875 1_555
F17 K11 2.797560 1_555
F17 K4 2.836892 1_555
F17 K0 3.373991 1_655
F18 Ta2 1.936495 1_554
F18 K8 2.797560 1_555
F18 K7 2.836892 1_555
F18 K3 3.373991 1_555
F19 Ta3 1.936495 1_556
F19 K9 2.797560 1_555
F19 K6 2.836892 1_565
F19 K2 3.373991 1_555
F20 K7 2.489621 1_655
F20 K4 2.496540 1_555
F20 K3 2.604480 1_555
F20 K0 3.012726 1_655
F20 F27 3.071217 1_655
F20 O3 3.299392 1_555
F21 K6 2.489621 1_455
F21 K5 2.496540 1_555
F21 K2 2.604480 1_545
F21 K1 3.012726 1_445
F21 F26 3.071217 1_445
F21 O2 3.299392 1_555
F22 K5 2.489621 1_555
F22 K6 2.496540 1_555
F22 K1 2.604480 1_545
F22 K2 3.012726 1_545
F22 F25 3.071217 1_545
F22 O1 3.299392 1_555
F23 K4 2.489621 1_555
F23 K7 2.496540 1_555
F23 K0 2.604480 1_555
F23 K3 3.012726 1_555
F23 F24 3.071217 1_555
F23 O0 3.299392 1_555
F24 K8 2.477715 1_555
F24 K11 2.496914 1_555
F24 K3 2.658440 1_555
F24 K0 2.667307 1_555
F25 K9 2.477715 1_555
F25 K10 2.496914 1_555
F25 K2 2.658440 1_555
F25 K1 2.667307 1_555
F26 K10 2.477715 1_655
F26 K9 2.496914 1_555
F26 K1 2.658440 1_555
F26 K2 2.667307 1_655
F26 F9 3.377170 1_555
F27 K11 2.477715 1_455
F27 K8 2.496914 1_555
F27 K0 2.658440 1_555
F27 K3 2.667307 1_455
F27 F8 3.377170 1_555
