# generated using pymatgen
data_SbAsN(O2F)2
_symmetry_space_group_name_H-M   'P 1'
_cell_length_a   8.60370600
_cell_length_b   7.63962000
_cell_length_c   11.15992613
_cell_angle_alpha   86.14938772
_cell_angle_beta   90.00000000
_cell_angle_gamma   90.00000000
_symmetry_Int_Tables_number   1
_chemical_formula_structural   SbAsN(O2F)2
_chemical_formula_sum   'Sb4 As4 N4 O16 F8'
_cell_volume   731.87536009
_cell_formula_units_Z   4
loop_
 _symmetry_equiv_pos_site_id
 _symmetry_equiv_pos_as_xyz
  1  'x, y, z'
loop_
 _atom_site_type_symbol
 _atom_site_label
 _atom_site_symmetry_multiplicity
 _atom_site_fract_x
 _atom_site_fract_y
 _atom_site_fract_z
 _atom_site_occupancy
  Sb  Sb0  1  0.65489800  0.68690100  0.37544800  1
  Sb  Sb1  1  0.15489800  0.31309900  0.12455200  1
  Sb  Sb2  1  0.34510200  0.31309900  0.62455200  1
  Sb  Sb3  1  0.84510200  0.68690100  0.87544800  1
  As  As0  1  0.56558300  0.65817900  0.67679300  1
  As  As1  1  0.06558300  0.34182100  0.82320700  1
  As  As2  1  0.43441700  0.34182100  0.32320700  1
  As  As3  1  0.93441700  0.65817900  0.17679300  1
  N  N0  1  0.55415100  0.19965600  0.97856700  1
  N  N1  1  0.05415100  0.80034400  0.52143300  1
  N  N2  1  0.44584900  0.80034400  0.02143300  1
  N  N3  1  0.94584900  0.19965600  0.47856700  1
  O  O0  1  0.73372100  0.65664000  0.21112800  1
  O  O1  1  0.23372100  0.34336000  0.28887200  1
  O  O2  1  0.26627900  0.34336000  0.78887200  1
  O  O3  1  0.76627900  0.65664000  0.71112800  1
  O  O4  1  0.55341100  0.24384000  0.23488500  1
  O  O5  1  0.05341100  0.75616000  0.26511500  1
  O  O6  1  0.44658900  0.75616000  0.76511500  1
  O  O7  1  0.94658900  0.24384000  0.73488500  1
  O  O8  1  0.53971000  0.42641200  0.66462500  1
  O  O9  1  0.03971000  0.57358800  0.83537500  1
  O  O10  1  0.46029000  0.57358800  0.33537500  1
  O  O11  1  0.96029000  0.42641200  0.16462500  1
  O  O12  1  0.43967900  0.25005500  0.47176400  1
  O  O13  1  0.93967900  0.74994500  0.02823600  1
  O  O14  1  0.56032100  0.74994500  0.52823600  1
  O  O15  1  0.06032100  0.25005500  0.97176400  1
  F  F0  1  0.80000300  0.52685000  0.44814300  1
  F  F1  1  0.30000300  0.47315000  0.05185700  1
  F  F2  1  0.19999700  0.47315000  0.55185700  1
  F  F3  1  0.69999700  0.52685000  0.94814300  1
  F  F4  1  0.79077700  0.92711200  0.85587200  1
  F  F5  1  0.29077700  0.07288800  0.64412800  1
  F  F6  1  0.20922300  0.07288800  0.14412800  1
  F  F7  1  0.70922300  0.92711200  0.35587200  1
loop_
_geom_bond_atom_site_label_1
_geom_bond_atom_site_label_2
_geom_bond_distance
_geom_bond_site_symmetry_2
As0 O6 1.636792 1_555
As0 O14 1.756704 1_555
As0 O3 1.768602 1_555
As0 O8 1.798708 1_555
As1 O7 1.636792 1_455
As1 O15 1.756704 1_555
As1 O2 1.768602 1_555
As1 O9 1.798708 1_555
As2 O4 1.636792 1_555
As2 O12 1.756704 1_555
As2 O1 1.768602 1_555
As2 O10 1.798708 1_555
As3 O5 1.636792 1_655
As3 O13 1.756704 1_555
As3 O0 1.768602 1_555
As3 O11 1.798708 1_555
N0 O4 2.902769 1_556
N0 N2 3.194871 1_546
N0 O2 3.392505 1_555
N0 O8 3.804764 1_555
N1 O5 2.902769 1_555
N1 N3 3.194871 1_465
N1 O3 3.392505 1_455
N1 O9 3.804764 1_555
N2 O6 2.902769 1_554
N2 O0 3.392505 1_555
N2 O10 3.804764 1_555
N3 O7 2.902769 1_555
N3 O1 3.392505 1_655
N3 O11 3.804764 1_555
O0 Sb0 1.983209 1_555
O1 Sb1 1.983209 1_555
O2 Sb2 1.983209 1_555
O3 Sb3 1.983209 1_555
O8 Sb2 1.950596 1_555
O9 Sb3 1.950596 1_455
O10 Sb0 1.950596 1_555
O11 Sb1 1.950596 1_655
O12 Sb2 1.977820 1_555
O13 Sb3 1.977820 1_554
O14 Sb0 1.977820 1_555
O15 Sb1 1.977820 1_556
F0 Sb0 1.891719 1_555
F0 N3 2.797149 1_555
F0 N1 3.169439 1_655
F1 Sb1 1.891719 1_555
F1 N2 2.797149 1_555
F1 N0 3.169439 1_554
F2 Sb2 1.891719 1_555
F2 N1 2.797149 1_555
F2 N3 3.169439 1_455
F3 Sb3 1.891719 1_555
F3 N0 2.797149 1_555
F3 N2 3.169439 1_556
F4 Sb3 1.892091 1_555
F4 O13 2.612204 1_556
F4 N0 3.276861 1_565
F4 N2 3.594216 1_556
F5 Sb2 1.892091 1_555
F5 O12 2.612204 1_555
F5 N1 3.276861 1_545
F5 N3 3.594216 1_455
F6 Sb1 1.892091 1_555
F6 O15 2.612204 1_554
F6 N2 3.276861 1_545
F6 N0 3.594216 1_554
F7 Sb0 1.892091 1_555
F7 O14 2.612204 1_555
F7 N3 3.276861 1_565
F7 N1 3.594216 1_655
