# generated using pymatgen
data_Li9Mn2P4HO18
_symmetry_space_group_name_H-M   'P 1'
_cell_length_a   10.73138295
_cell_length_b   10.73138295
_cell_length_c   10.73138295
_cell_angle_alpha   143.30773195
_cell_angle_beta   96.94039727
_cell_angle_gamma   94.43378561
_symmetry_Int_Tables_number   1
_chemical_formula_structural   Li9Mn2P4HO18
_chemical_formula_sum   'Li18 Mn4 P8 H2 O36'
_cell_volume   700.70563702
_cell_formula_units_Z   2
loop_
 _symmetry_equiv_pos_site_id
 _symmetry_equiv_pos_as_xyz
  1  'x, y, z'
loop_
 _atom_site_type_symbol
 _atom_site_label
 _atom_site_symmetry_multiplicity
 _atom_site_fract_x
 _atom_site_fract_y
 _atom_site_fract_z
 _atom_site_occupancy
  Li  Li0  1  0.47748100  0.23603500  0.22144400  1
  Li  Li1  1  0.47748100  0.75603700  0.74144600  1
  Li  Li2  1  0.73962400  0.11730400  0.12232000  1
  Li  Li3  1  0.50155800  0.38103500  0.62052300  1
  Li  Li4  1  0.26167400  0.12513900  0.63653500  1
  Li  Li5  1  0.22902000  0.22902000  0.00000000  1
  Li  Li6  1  0.99345800  0.49345800  0.50000000  1
  Li  Li7  1  0.51145700  0.51145700  0.00000000  1
  Li  Li8  1  0.74985600  0.74985600  0.00000000  1
  Li  Li9  1  0.99345800  0.99345800  0.00000000  1
  Li  Li10  1  0.22902000  0.72902000  0.50000000  1
  Li  Li11  1  0.51145700  0.01145700  0.50000000  1
  Li  Li12  1  0.74985600  0.24985600  0.50000000  1
  Li  Li13  1  0.48860400  0.62513900  0.36346500  1
  Li  Li14  1  0.99498400  0.61730400  0.87768000  1
  Li  Li15  1  0.76051100  0.88103500  0.37947700  1
  Li  Li16  1  0.01459100  0.73603500  0.25855400  1
  Li  Li17  1  0.01459100  0.25603700  0.77855600  1
  Mn  Mn0  1  0.25231100  0.49091300  0.74512500  1
  Mn  Mn1  1  0.74578900  0.99091300  0.73860300  1
  Mn  Mn2  1  0.74578900  0.50718600  0.25487500  1
  Mn  Mn3  1  0.25231100  0.00718600  0.26139700  1
  P  P0  1  0.53032300  0.89227300  0.13805000  1
  P  P1  1  0.74398600  0.60766900  0.63631800  1
  P  P2  1  0.01667400  0.88443100  0.63224300  1
  P  P3  1  0.25249800  0.61212700  0.14037100  1
  P  P4  1  0.25218900  0.38443100  0.36775700  1
  P  P5  1  0.47175600  0.11212700  0.85962900  1
  P  P6  1  0.75422400  0.39227300  0.86195000  1
  P  P7  1  0.97135100  0.10766900  0.36368200  1
  H  H0  1  0.90662400  0.31184900  0.09477500  1
  H  H1  1  0.21707400  0.81184900  0.90522500  1
  O  O0  1  0.33603300  0.48884500  0.34718800  1
  O  O1  1  0.34824800  0.00866000  0.83958800  1
  O  O2  1  0.29474300  0.17771000  0.23960600  1
  O  O3  1  0.55199100  0.94181300  0.73093900  1
  O  O4  1  0.29474300  0.55513700  0.61703300  1
  O  O5  1  0.55199100  0.32105300  0.11017800  1
  O  O6  1  0.30675000  0.24385000  0.56290000  1
  O  O7  1  0.81240700  0.25581800  0.05658900  1
  O  O8  1  0.55966100  0.98190000  0.07776100  1
  O  O9  1  0.59492000  0.51758000  0.57734000  1
  O  O10  1  0.77971000  0.85563400  0.80716600  1
  O  O11  1  0.45471900  0.02754400  0.31033000  1
  O  O12  1  0.45471900  0.64438900  0.92717500  1
  O  O13  1  0.77971000  0.47254500  0.42407600  1
  O  O14  1  0.05035400  0.82693800  0.72341600  1
  O  O15  1  0.40332400  0.67272900  0.23059500  1
  O  O16  1  0.65646600  0.91179000  0.24467600  1
  O  O17  1  0.83333900  0.58990900  0.74343000  1
  O  O18  1  0.66711400  0.41179000  0.75532400  1
  O  O19  1  0.84647900  0.08990900  0.25657000  1
  O  O20  1  0.10352200  0.32693800  0.27658400  1
  O  O21  1  0.44213500  0.17272900  0.76940500  1
  O  O22  1  0.71721300  0.14438900  0.68967000  1
  O  O23  1  0.04846800  0.97254500  0.19283400  1
  O  O24  1  0.71721300  0.52754400  0.07282500  1
  O  O25  1  0.04846800  0.35563400  0.57592400  1
  O  O26  1  0.90413900  0.48190000  0.92223900  1
  O  O27  1  0.94024100  0.01758000  0.42266000  1
  O  O28  1  0.19923000  0.75581800  0.94341100  1
  O  O29  1  0.68094900  0.74385000  0.43710000  1
  O  O30  1  0.21087400  0.82105300  0.26906100  1
  O  O31  1  0.21087400  0.44181300  0.88982200  1
  O  O32  1  0.93810500  0.05513700  0.76039400  1
  O  O33  1  0.93810500  0.67771000  0.38296700  1
  O  O34  1  0.14165700  0.98884500  0.65281200  1
  O  O35  1  0.16907100  0.50866000  0.16041200  1
loop_
_geom_bond_atom_site_label_1
_geom_bond_atom_site_label_2
_geom_bond_distance
_geom_bond_site_symmetry_2
Li0 O2 2.091321 1_555
Li0 O8 2.132991 1_545
Li0 O5 2.182315 1_555
Li0 O9 2.246298 1_555
Li0 O1 2.595655 1_554
Li0 O0 2.597314 1_555
Li1 O4 2.091321 1_555
Li1 O8 2.132991 1_556
Li1 O3 2.182306 1_555
Li1 O9 2.246298 1_555
Li1 O1 2.595655 1_565
Li1 O0 2.597314 1_555
Li2 O19 1.951677 1_555
Li2 O8 2.073267 1_545
Li2 O10 2.194633 1_544
Li2 O13 2.194638 1_555
Li2 O7 2.225379 1_555
Li3 O18 1.969920 1_555
Li3 O9 2.083250 1_555
Li3 O6 2.161462 1_555
Li3 O11 2.184843 1_555
Li3 O12 2.184843 1_555
Li4 O34 2.000355 1_545
Li4 O21 2.014016 1_555
Li4 O6 2.023074 1_555
Li4 O30 2.250558 1_545
Li4 O31 2.250559 1_555
Li5 O1 2.159690 1_554
Li5 O35 2.159695 1_555
Li5 O0 2.187581 1_555
Li5 O34 2.187581 1_544
Li5 O14 2.812613 1_544
Li5 O20 2.812613 1_555
Li6 O20 2.115768 1_655
Li6 O14 2.115768 1_655
Li6 O25 2.269640 1_655
Li6 O13 2.269643 1_555
Li6 O19 2.805658 1_555
Li6 O17 2.805658 1_555
Li7 O21 2.145153 1_554
Li7 O15 2.145154 1_555
Li7 O24 2.196291 1_555
Li7 O12 2.196301 1_554
Li7 O18 2.767855 1_554
Li7 O16 2.767855 1_555
Li8 O16 2.122805 1_555
Li8 O18 2.122805 1_554
Li8 O17 2.141149 1_554
Li8 O19 2.141149 1_565
Li9 O14 2.115768 1_654
Li9 O20 2.115768 1_665
Li9 O23 2.269631 1_655
Li9 O10 2.269640 1_554
Li9 O19 2.805658 1_565
Li9 O17 2.805658 1_554
Li10 O1 2.159690 1_565
Li10 O35 2.159690 1_555
Li10 O0 2.187581 1_555
Li10 O34 2.187581 1_555
Li10 O20 2.812613 1_555
Li10 O14 2.812613 1_555
Li11 O21 2.145148 1_555
Li11 O15 2.145154 1_545
Li11 O22 2.196292 1_555
Li11 O11 2.196301 1_555
Li11 O18 2.767855 1_555
Li11 O16 2.767855 1_545
Li12 O16 2.122805 1_545
Li12 O18 2.122805 1_555
Li12 O17 2.141149 1_555
Li12 O19 2.141149 1_555
Li13 O0 2.000355 1_555
Li13 O15 2.014007 1_555
Li13 O29 2.023064 1_555
Li13 O5 2.250553 1_555
Li13 O3 2.250559 1_555
Li14 O17 1.951677 1_555
Li14 O26 2.073267 1_555
Li14 O25 2.194633 1_655
Li14 O23 2.194638 1_656
Li14 O28 2.225388 1_655
Li15 O16 1.969915 1_555
Li15 O27 2.083268 1_565
Li15 O29 2.161462 1_555
Li15 O22 2.184843 1_565
Li15 O24 2.184843 1_555
Li16 O33 2.091317 1_455
Li16 O26 2.132991 1_454
Li16 O30 2.182309 1_555
Li16 O27 2.246292 1_465
Li16 O35 2.595646 1_555
Li16 O34 2.597314 1_555
Li17 O32 2.091318 1_455
Li17 O26 2.132991 1_455
Li17 O31 2.182306 1_555
Li17 O27 2.246298 1_455
Li17 O35 2.595651 1_556
Li17 O34 2.597314 1_545
Mn0 O6 1.842733 1_555
Mn0 O28 1.943217 1_555
Mn0 O4 2.047924 1_555
Mn0 O31 2.080707 1_555
Mn0 O12 2.123338 1_555
Mn0 O25 2.124012 1_555
Mn1 O29 1.842740 1_555
Mn1 O7 1.943216 1_566
Mn1 O32 2.047927 1_565
Mn1 O3 2.080714 1_555
Mn1 O22 2.123350 1_565
Mn1 O10 2.124001 1_555
Mn2 O29 1.842746 1_555
Mn2 O7 1.943216 1_555
Mn2 O33 2.047924 1_555
Mn2 O5 2.080713 1_555
Mn2 O24 2.123338 1_555
Mn2 O13 2.124002 1_555
Mn3 O6 1.842739 1_555
Mn3 O28 1.943216 1_544
Mn3 O2 2.047915 1_555
Mn3 O30 2.080705 1_545
Mn3 O11 2.123338 1_555
Mn3 O23 2.124013 1_545
H0 O7 0.981055 1_555
H1 O28 0.981053 1_555
O0 P4 1.550032 1_555
O1 P5 1.535070 1_555
O2 P4 1.561052 1_555
O3 P5 1.572217 1_565
O4 P4 1.561057 1_555
O5 P5 1.572217 1_554
O8 P0 1.563069 1_555
O9 P1 1.558569 1_555
O10 P1 1.561298 1_555
O11 P0 1.556974 1_545
O12 P0 1.556974 1_556
O13 P1 1.561306 1_555
O14 P2 1.544571 1_555
O15 P3 1.558483 1_555
O16 P0 1.543736 1_555
O17 P1 1.546044 1_555
O18 P6 1.543741 1_555
O19 P7 1.546039 1_555
O20 P4 1.544581 1_555
O21 P5 1.558482 1_555
O22 P6 1.556973 1_555
O23 P7 1.561298 1_465
O24 P6 1.556985 1_554
O25 P7 1.561298 1_455
O26 P6 1.563059 1_555
O27 P7 1.558576 1_555
O30 P3 1.572225 1_555
O31 P3 1.572217 1_556
O32 P2 1.561049 1_645
O33 P2 1.561055 1_655
O34 P2 1.550038 1_555
O35 P3 1.535076 1_555
