# generated using pymatgen
data_CrGaO4
_symmetry_space_group_name_H-M   'P 1'
_cell_length_a   4.53778923
_cell_length_b   5.42297967
_cell_length_c   4.54361379
_cell_angle_alpha   91.47113786
_cell_angle_beta   88.26421525
_cell_angle_gamma   146.84929921
_symmetry_Int_Tables_number   1
_chemical_formula_structural   CrGaO4
_chemical_formula_sum   'Cr1 Ga1 O4'
_cell_volume   61.11488463
_cell_formula_units_Z   1
loop_
 _symmetry_equiv_pos_site_id
 _symmetry_equiv_pos_as_xyz
  1  'x, y, z'
loop_
 _atom_site_type_symbol
 _atom_site_label
 _atom_site_symmetry_multiplicity
 _atom_site_fract_x
 _atom_site_fract_y
 _atom_site_fract_z
 _atom_site_occupancy
  Cr  Cr0  1  0.50431400  0.00023300  0.49841100  1
  Ga  Ga0  1  0.50308300  0.49935100  0.99838700  1
  O  O0  1  0.20917100  0.99932300  0.79356600  1
  O  O1  1  0.19467700  0.50029400  0.68676200  1
  O  O2  1  0.79916900  0.99935500  0.20312200  1
  O  O3  1  0.81420700  0.49898000  0.30882500  1
loop_
_geom_bond_atom_site_label_1
_geom_bond_atom_site_label_2
_geom_bond_distance
_geom_bond_site_symmetry_2
Cr0 O0 1.863511 1_545
Cr0 O2 1.868671 1_545
Cr0 O3 1.926760 1_555
Cr0 O1 1.928287 1_655
Cr0 O1 1.929924 1_545
Cr0 O3 1.930562 1_445
Ga0 O2 1.966546 1_446
Ga0 O2 1.966910 1_556
Ga0 O0 1.971235 1_655
Ga0 O0 1.971718 1_545
Ga0 O1 2.023798 1_555
Ga0 O3 2.026896 1_556
O0 O1 2.683269 1_555
O0 O1 2.684707 1_665
O0 O3 2.685893 1_565
O0 O3 2.686010 1_455
O1 O2 2.680877 1_555
O1 O2 2.682952 1_445
O2 O3 2.683144 1_455
O2 O3 2.683663 1_565
