# generated using pymatgen
data_Mn3(O2F)2
_symmetry_space_group_name_H-M   'P 1'
_cell_length_a   5.50298800
_cell_length_b   5.52254401
_cell_length_c   6.99307113
_cell_angle_alpha   74.36093869
_cell_angle_beta   73.92162584
_cell_angle_gamma   75.60383301
_symmetry_Int_Tables_number   1
_chemical_formula_structural   Mn3(O2F)2
_chemical_formula_sum   'Mn6 O8 F4'
_cell_volume   193.14299859
_cell_formula_units_Z   2
loop_
 _symmetry_equiv_pos_site_id
 _symmetry_equiv_pos_as_xyz
  1  'x, y, z'
loop_
 _atom_site_type_symbol
 _atom_site_label
 _atom_site_symmetry_multiplicity
 _atom_site_fract_x
 _atom_site_fract_y
 _atom_site_fract_z
 _atom_site_occupancy
  Mn  Mn0  1  0.50000000  0.50000000  0.50000000  1
  Mn  Mn1  1  0.18957200  0.14132400  0.33306800  1
  Mn  Mn2  1  0.50000000  0.50000000  0.00000000  1
  Mn  Mn3  1  0.19068300  0.15688400  0.82698100  1
  Mn  Mn4  1  0.80931700  0.84311600  0.17301900  1
  Mn  Mn5  1  0.81042800  0.85867600  0.66693200  1
  O  O0  1  0.72042600  0.74420900  0.96247500  1
  O  O1  1  0.40956700  0.37995000  0.29756200  1
  O  O2  1  0.06977100  0.06785600  0.62527300  1
  O  O3  1  0.93022900  0.93214400  0.37472700  1
  O  O4  1  0.59043300  0.62005000  0.70243800  1
  O  O5  1  0.27957400  0.25579100  0.03752500  1
  O  O6  1  0.46647000  0.84906400  0.33396400  1
  O  O7  1  0.53353000  0.15093600  0.66603600  1
  F  F0  1  0.89011100  0.44279700  0.33010000  1
  F  F1  1  0.17024900  0.79431300  0.01766700  1
  F  F2  1  0.82975100  0.20568700  0.98233300  1
  F  F3  1  0.10988900  0.55720300  0.66990000  1
loop_
_geom_bond_atom_site_label_1
_geom_bond_atom_site_label_2
_geom_bond_distance
_geom_bond_site_symmetry_2
Mn0 O4 1.936910 1_555
Mn0 O1 1.936910 1_555
Mn0 O6 1.957891 1_555
Mn0 O7 1.957891 1_555
Mn1 O6 1.924543 1_545
Mn1 O1 1.927259 1_555
Mn1 O2 1.927327 1_555
Mn1 O5 1.949533 1_555
Mn1 O3 1.965761 1_445
Mn2 O0 1.950755 1_554
Mn2 O5 1.950755 1_555
Mn2 O4 1.965678 1_554
Mn2 O1 1.965678 1_555
Mn3 O7 1.907963 1_555
Mn3 O5 1.915945 1_556
Mn3 O2 1.931472 1_555
Mn4 O6 1.907963 1_555
Mn4 O0 1.915945 1_554
Mn4 O3 1.931472 1_555
Mn5 O7 1.924543 1_565
Mn5 O4 1.927259 1_555
Mn5 O3 1.927327 1_555
Mn5 O0 1.949533 1_555
Mn5 O2 1.965761 1_665
O0 O4 2.434204 1_555
O1 O5 2.434204 1_555
F0 Mn1 2.030771 1_655
F0 Mn0 2.138320 1_555
F0 Mn4 2.182729 1_555
F0 O2 2.708095 1_655
F0 O3 2.711677 1_545
F0 O5 2.730526 1_655
F0 O1 2.744551 1_655
F0 O1 2.827983 1_555
F1 Mn4 1.973412 1_455
F1 Mn3 2.095094 1_564
F1 Mn2 2.113617 1_555
F1 O3 2.693830 1_455
F1 O0 2.698213 1_454
F2 Mn3 1.973412 1_655
F2 Mn4 2.095094 1_546
F2 Mn2 2.113617 1_556
F2 O2 2.693830 1_655
F2 O5 2.698213 1_656
F3 Mn5 2.030771 1_455
F3 Mn0 2.138320 1_555
F3 Mn3 2.182729 1_555
F3 O3 2.708095 1_455
F3 O2 2.711677 1_565
F3 O0 2.730526 1_455
F3 O4 2.744551 1_455
F3 O4 2.827983 1_555
