# generated using pymatgen
data_LiCu(PO3)2
_symmetry_space_group_name_H-M   'P 1'
_cell_length_a   8.58210500
_cell_length_b   10.46898800
_cell_length_c   11.95410206
_cell_angle_alpha   67.64574345
_cell_angle_beta   90.00000000
_cell_angle_gamma   90.00000000
_symmetry_Int_Tables_number   1
_chemical_formula_structural   LiCu(PO3)2
_chemical_formula_sum   'Li8 Cu8 P16 O48'
_cell_volume   993.31449865
_cell_formula_units_Z   8
loop_
 _symmetry_equiv_pos_site_id
 _symmetry_equiv_pos_as_xyz
  1  'x, y, z'
loop_
 _atom_site_type_symbol
 _atom_site_label
 _atom_site_symmetry_multiplicity
 _atom_site_fract_x
 _atom_site_fract_y
 _atom_site_fract_z
 _atom_site_occupancy
  Li  Li0  1  0.39577500  0.74450500  0.51328200  1
  Li  Li1  1  0.94782200  0.77465700  0.70930300  1
  Li  Li2  1  0.44782200  0.22534300  0.79069700  1
  Li  Li3  1  0.10422500  0.74450500  0.01328200  1
  Li  Li4  1  0.60422500  0.25549500  0.48671800  1
  Li  Li5  1  0.89577500  0.25549500  0.98671800  1
  Li  Li6  1  0.55217800  0.77465700  0.20930300  1
  Li  Li7  1  0.05217800  0.22534300  0.29069700  1
  Cu  Cu0  1  0.03789900  0.75336200  0.47442600  1
  Cu  Cu1  1  0.27125900  0.73817100  0.76008200  1
  Cu  Cu2  1  0.46210100  0.75336200  0.97442600  1
  Cu  Cu3  1  0.96210100  0.24663800  0.52557400  1
  Cu  Cu4  1  0.22874100  0.73817100  0.26008200  1
  Cu  Cu5  1  0.77125900  0.26182900  0.73991800  1
  Cu  Cu6  1  0.53789900  0.24663800  0.02557400  1
  Cu  Cu7  1  0.72874100  0.26182900  0.23991800  1
  P  P0  1  0.26637200  0.46755000  0.51411100  1
  P  P1  1  0.73053200  0.97044300  0.52390700  1
  P  P2  1  0.98600700  0.99462700  0.81452400  1
  P  P3  1  0.48600700  0.00537300  0.68547600  1
  P  P4  1  0.99819300  0.49882400  0.81423500  1
  P  P5  1  0.23362800  0.46755000  0.01411100  1
  P  P6  1  0.76946800  0.97044300  0.02390700  1
  P  P7  1  0.50180700  0.49882400  0.31423500  1
  P  P8  1  0.49819300  0.50117600  0.68576500  1
  P  P9  1  0.23053200  0.02955700  0.97609300  1
  P  P10  1  0.76637200  0.53245000  0.98588900  1
  P  P11  1  0.00180700  0.50117600  0.18576500  1
  P  P12  1  0.51399300  0.99462700  0.31452400  1
  P  P13  1  0.01399300  0.00537300  0.18547600  1
  P  P14  1  0.26946800  0.02955700  0.47609300  1
  P  P15  1  0.73362800  0.53245000  0.48588900  1
  O  O0  1  0.24872500  0.87492600  0.53049500  1
  O  O1  1  0.39661300  0.89765400  0.78501900  1
  O  O2  1  0.42343600  0.62363200  0.69920300  1
  O  O3  1  0.86699600  0.87479200  0.55536500  1
  O  O4  1  0.36935200  0.41527800  0.63930700  1
  O  O5  1  0.04996400  0.86988800  0.79667100  1
  O  O6  1  0.12745400  0.37891000  0.53563700  1
  O  O7  1  0.38314600  0.07687900  0.56243600  1
  O  O8  1  0.07693300  0.61470000  0.71384400  1
  O  O9  1  0.62268100  0.92483200  0.64527400  1
  O  O10  1  0.25127500  0.87492600  0.03049500  1
  O  O11  1  0.24028800  0.62425700  0.96555100  1
  O  O12  1  0.74028800  0.37574300  0.53444900  1
  O  O13  1  0.88314600  0.92312100  0.93756400  1
  O  O14  1  0.61209800  0.57614100  0.57092600  1
  O  O15  1  0.45003600  0.86988800  0.29667100  1
  O  O16  1  0.37254600  0.37891000  0.03563700  1
  O  O17  1  0.11209800  0.42385900  0.92907400  1
  O  O18  1  0.92343600  0.37636800  0.80079700  1
  O  O19  1  0.42306700  0.61470000  0.21384400  1
  O  O20  1  0.86935200  0.58472200  0.86069300  1
  O  O21  1  0.36699600  0.12520800  0.94463500  1
  O  O22  1  0.87731900  0.92483200  0.14527400  1
  O  O23  1  0.89661300  0.10234600  0.71498100  1
  O  O24  1  0.10338700  0.89765400  0.28501900  1
  O  O25  1  0.12268100  0.07516800  0.85472600  1
  O  O26  1  0.63300400  0.87479200  0.05536500  1
  O  O27  1  0.13064800  0.41527800  0.13930700  1
  O  O28  1  0.57693300  0.38530000  0.78615600  1
  O  O29  1  0.07656400  0.62363200  0.19920300  1
  O  O30  1  0.88790200  0.57614100  0.07092600  1
  O  O31  1  0.62745400  0.62109000  0.96436300  1
  O  O32  1  0.54996400  0.13011200  0.70332900  1
  O  O33  1  0.38790200  0.42385900  0.42907400  1
  O  O34  1  0.11685400  0.07687900  0.06243600  1
  O  O35  1  0.25971200  0.62425700  0.46555100  1
  O  O36  1  0.75971200  0.37574300  0.03444900  1
  O  O37  1  0.74872500  0.12507400  0.96950500  1
  O  O38  1  0.37731900  0.07516800  0.35472600  1
  O  O39  1  0.92306700  0.38530000  0.28615600  1
  O  O40  1  0.61685400  0.92312100  0.43756400  1
  O  O41  1  0.87254600  0.62109000  0.46436300  1
  O  O42  1  0.95003600  0.13011200  0.20332900  1
  O  O43  1  0.63064800  0.58472200  0.36069300  1
  O  O44  1  0.13300400  0.12520800  0.44463500  1
  O  O45  1  0.57656400  0.37636800  0.30079700  1
  O  O46  1  0.60338700  0.10234600  0.21498100  1
  O  O47  1  0.75127500  0.12507400  0.46950500  1
loop_
_geom_bond_atom_site_label_1
_geom_bond_atom_site_label_2
_geom_bond_distance
_geom_bond_site_symmetry_2
Li0 O0 1.926899 1_555
Li0 O35 1.954545 1_555
Li0 O2 2.111379 1_555
Li0 O15 2.461577 1_555
Li0 O14 2.470694 1_555
Li0 O40 2.574546 1_555
Li1 O3 1.870569 1_555
Li1 O5 1.909238 1_655
Li1 O8 1.991433 1_655
Li1 O20 2.223786 1_555
Li2 O21 1.870569 1_555
Li2 O32 1.909238 1_555
Li2 O28 1.991433 1_555
Li2 O4 2.223786 1_555
Li3 O10 1.926899 1_555
Li3 O11 1.954545 1_554
Li3 O29 2.111379 1_555
Li3 O5 2.461577 1_554
Li3 O30 2.470694 1_455
Li3 O13 2.574546 1_454
Li4 O47 1.926899 1_555
Li4 O12 1.954545 1_555
Li4 O45 2.111379 1_555
Li4 O32 2.461577 1_555
Li4 O33 2.470694 1_555
Li4 O7 2.574546 1_555
Li5 O37 1.926899 1_555
Li5 O36 1.954545 1_556
Li5 O18 2.111379 1_555
Li5 O42 2.461577 1_556
Li5 O17 2.470694 1_655
Li5 O34 2.574546 1_656
Li6 O26 1.870569 1_555
Li6 O15 1.909238 1_555
Li6 O19 1.991433 1_555
Li6 O43 2.223786 1_555
Li7 O44 1.870569 1_555
Li7 O42 1.909238 1_455
Li7 O39 1.991433 1_455
Li7 O27 2.223786 1_555
Cu0 O41 2.018044 1_455
Cu0 O24 2.263326 1_555
Cu0 O35 2.360281 1_555
Cu0 O3 2.374675 1_455
Cu0 O0 2.447736 1_555
Cu0 O8 2.692658 1_555
Cu1 O2 2.082526 1_555
Cu1 O1 2.100584 1_555
Cu1 O11 2.301661 1_555
Cu1 O8 2.302424 1_555
Cu1 O5 2.481622 1_555
Cu1 O0 2.574992 1_555
Cu2 O31 2.018044 1_555
Cu2 O1 2.263326 1_555
Cu2 O11 2.360281 1_555
Cu2 O26 2.374675 1_556
Cu2 O10 2.447736 1_556
Cu2 O19 2.692658 1_556
Cu3 O6 2.018044 1_655
Cu3 O23 2.263326 1_555
Cu3 O12 2.360281 1_555
Cu3 O44 2.374675 1_655
Cu3 O47 2.447736 1_555
Cu3 O39 2.692658 1_555
Cu4 O29 2.082526 1_555
Cu4 O24 2.100584 1_555
Cu4 O35 2.301661 1_555
Cu4 O19 2.302424 1_555
Cu4 O15 2.481622 1_555
Cu4 O10 2.574992 1_555
Cu5 O18 2.082526 1_555
Cu5 O23 2.100584 1_555
Cu5 O12 2.301661 1_555
Cu5 O28 2.302424 1_555
Cu5 O32 2.481622 1_555
Cu5 O37 2.574992 1_555
Cu6 O16 2.018044 1_555
Cu6 O46 2.263326 1_555
Cu6 O36 2.360281 1_555
Cu6 O21 2.374675 1_554
Cu6 O37 2.447736 1_554
Cu6 O28 2.692658 1_554
Cu7 O45 2.082526 1_555
Cu7 O46 2.100584 1_555
Cu7 O36 2.301661 1_555
Cu7 O39 2.302424 1_555
Cu7 O42 2.481622 1_555
Cu7 O47 2.574992 1_555
O0 P14 1.508119 1_565
O1 P3 1.501844 1_565
O2 P8 1.495851 1_555
O3 P1 1.493085 1_555
O4 P0 1.642374 1_555
O4 P8 1.649130 1_555
O5 P2 1.504716 1_455
O6 P0 1.472097 1_555
O7 P14 1.628350 1_555
O7 P3 1.632630 1_555
O8 P4 1.503687 1_455
O9 P3 1.620481 1_565
O9 P1 1.631769 1_555
O10 P9 1.508119 1_564
O11 P5 1.518974 1_556
O12 P15 1.518974 1_555
O13 P6 1.628350 1_556
O13 P2 1.632630 1_555
O14 P8 1.623750 1_555
O14 P15 1.638313 1_555
O15 P12 1.504716 1_555
O16 P5 1.472097 1_555
O17 P4 1.623750 1_455
O17 P5 1.638313 1_556
O18 P4 1.495851 1_555
O19 P7 1.503687 1_555
O20 P10 1.642374 1_555
O20 P4 1.649130 1_555
O21 P9 1.493085 1_555
O22 P13 1.620481 1_665
O22 P6 1.631769 1_555
O23 P2 1.501844 1_545
O24 P13 1.501844 1_565
O25 P2 1.620481 1_445
O25 P9 1.631769 1_555
O26 P6 1.493085 1_555
O27 P5 1.642374 1_555
O27 P11 1.649130 1_555
O28 P8 1.503687 1_555
O29 P11 1.495851 1_555
O30 P11 1.623750 1_655
O30 P10 1.638313 1_554
O31 P10 1.472097 1_555
O32 P3 1.504716 1_555
O33 P7 1.623750 1_555
O33 P0 1.638313 1_555
O34 P9 1.628350 1_554
O34 P13 1.632630 1_555
O35 P0 1.518974 1_555
O36 P10 1.518974 1_554
O37 P6 1.508119 1_546
O38 P12 1.620481 1_545
O38 P14 1.631769 1_555
O39 P11 1.503687 1_655
O40 P1 1.628350 1_555
O40 P12 1.632630 1_555
O41 P15 1.472097 1_555
O42 P13 1.504716 1_655
O43 P15 1.642374 1_555
O43 P7 1.649130 1_555
O44 P14 1.493085 1_555
O45 P7 1.495851 1_555
O46 P12 1.501844 1_545
O47 P1 1.508119 1_545
