# generated using pymatgen
data_Li4V3OF11
_symmetry_space_group_name_H-M   'P 1'
_cell_length_a   5.59978691
_cell_length_b   6.42474462
_cell_length_c   6.20308057
_cell_angle_alpha   103.16998844
_cell_angle_beta   97.56357365
_cell_angle_gamma   101.03191242
_symmetry_Int_Tables_number   1
_chemical_formula_structural   Li4V3OF11
_chemical_formula_sum   'Li4 V3 O1 F11'
_cell_volume   209.66871687
_cell_formula_units_Z   1
loop_
 _symmetry_equiv_pos_site_id
 _symmetry_equiv_pos_as_xyz
  1  'x, y, z'
loop_
 _atom_site_type_symbol
 _atom_site_label
 _atom_site_symmetry_multiplicity
 _atom_site_fract_x
 _atom_site_fract_y
 _atom_site_fract_z
 _atom_site_occupancy
  Li  Li0  1  0.14421300  0.55219500  0.33738900  1
  Li  Li1  1  0.38517000  0.64036600  0.85505400  1
  Li  Li2  1  0.61646700  0.35684700  0.12851800  1
  Li  Li3  1  0.86086900  0.46074800  0.66717200  1
  V  V0  1  0.70169100  0.86271800  0.38091800  1
  V  V1  1  0.00848100  0.00114700  0.02490700  1
  V  V2  1  0.30047200  0.13205400  0.60454400  1
  O  O0  1  0.05622100  0.97335300  0.32607900  1
  F  F0  1  0.06520200  0.71356000  0.89138600  1
  F  F1  1  0.42820700  0.84450800  0.58581500  1
  F  F2  1  0.65928500  0.86890300  0.04744800  1
  F  F3  1  0.16639500  0.39530600  0.58289700  1
  F  F4  1  0.42857400  0.59707200  0.20122100  1
  F  F5  1  0.57705200  0.39921700  0.79245600  1
  F  F6  1  0.83303000  0.60330400  0.42377600  1
  F  F7  1  0.33684500  0.12676900  0.94369700  1
  F  F8  1  0.56893900  0.14826400  0.40563000  1
  F  F9  1  0.94139300  0.29442600  0.10420400  1
  F  F10  1  0.92149700  0.02924100  0.69688800  1
loop_
_geom_bond_atom_site_label_1
_geom_bond_atom_site_label_2
_geom_bond_distance
_geom_bond_site_symmetry_2
O0 V1 1.905863 1_565
O0 V2 1.983894 1_565
O0 V0 2.076113 1_455
F0 Li3 1.929300 1_455
F0 V1 1.948662 1_566
F0 Li1 1.965396 1_555
F0 F10 2.775018 1_465
F1 V2 2.089942 1_565
F1 V0 2.118031 1_555
F1 Li0 2.307347 1_555
F1 Li1 2.355988 1_555
F1 F8 2.513189 1_565
F1 F4 2.548128 1_555
F1 F7 2.701518 1_565
F1 F10 2.717607 1_565
F2 Li1 1.947573 1_554
F2 V1 2.013799 1_665
F2 V0 2.061210 1_555
F2 F4 2.418478 1_555
F2 F8 2.690751 1_565
F3 Li3 1.946218 1_455
F3 V2 2.001314 1_555
F3 Li0 2.012036 1_555
F3 Li1 2.082292 1_555
F3 F5 2.480845 1_555
F3 O0 2.720459 1_545
F4 Li0 1.903034 1_555
F4 Li2 2.030193 1_555
F4 V0 2.044444 1_555
F4 Li1 2.215400 1_554
F4 F6 2.480741 1_555
F5 Li3 1.873726 1_555
F5 Li1 2.044146 1_555
F5 V2 2.073473 1_555
F5 Li2 2.151490 1_556
F5 F7 2.435736 1_555
F5 F8 2.557267 1_555
F6 Li3 1.940480 1_555
F6 Li0 1.953486 1_655
F6 V0 2.002232 1_555
F6 Li2 2.165921 1_555
F7 Li2 1.954633 1_556
F7 V1 2.036512 1_556
F7 V2 2.095466 1_555
F8 V2 2.068901 1_555
F8 V0 2.089381 1_545
F8 Li2 2.419729 1_555
F8 Li3 2.428293 1_555
F8 O0 2.808766 1_545
F9 Li2 1.954012 1_555
F9 V1 1.957210 1_655
F9 Li0 1.970012 1_655
F10 V1 2.085677 1_656
F10 V0 2.099190 1_545
F10 V2 2.285615 1_655
F10 O0 2.484543 1_645
F10 F7 2.492759 1_655
F10 F9 2.681532 1_556
F10 F3 2.773208 1_655
F10 F6 2.784206 1_545
F10 F8 2.831062 1_555
F10 Li3 2.900278 1_555
