# generated using pymatgen
data_Mn6Zn3O16
_symmetry_space_group_name_H-M   'P 1'
_cell_length_a   8.29529700
_cell_length_b   8.29311200
_cell_length_c   8.30202992
_cell_angle_alpha   89.60737525
_cell_angle_beta   90.00000000
_cell_angle_gamma   90.00000000
_symmetry_Int_Tables_number   1
_chemical_formula_structural   Mn6Zn3O16
_chemical_formula_sum   'Mn12 Zn6 O32'
_cell_volume   571.11500156
_cell_formula_units_Z   2
loop_
 _symmetry_equiv_pos_site_id
 _symmetry_equiv_pos_as_xyz
  1  'x, y, z'
loop_
 _atom_site_type_symbol
 _atom_site_label
 _atom_site_symmetry_multiplicity
 _atom_site_fract_x
 _atom_site_fract_y
 _atom_site_fract_z
 _atom_site_occupancy
  Mn  Mn0  1  0.37418500  0.12720000  0.87486000  1
  Mn  Mn1  1  0.87435200  0.12860000  0.37352100  1
  Mn  Mn2  1  0.12424200  0.12653700  0.62612700  1
  Mn  Mn3  1  0.37435200  0.87140000  0.62647900  1
  Mn  Mn4  1  0.62424200  0.87346300  0.37387300  1
  Mn  Mn5  1  0.87418500  0.87280000  0.12514000  1
  Mn  Mn6  1  0.87786300  0.62563300  0.87722300  1
  Mn  Mn7  1  0.62040700  0.62436900  0.61858400  1
  Mn  Mn8  1  0.12259800  0.62546600  0.12187100  1
  Mn  Mn9  1  0.62259800  0.37453400  0.87812900  1
  Mn  Mn10  1  0.12040700  0.37563100  0.38141600  1
  Mn  Mn11  1  0.37786300  0.37436700  0.12277700  1
  Zn  Zn0  1  0.99787700  0.25329100  0.99858100  1
  Zn  Zn1  1  0.50282900  0.25878400  0.49590000  1
  Zn  Zn2  1  0.75317400  0.00349300  0.75215200  1
  Zn  Zn3  1  0.25317400  0.99650700  0.24784800  1
  Zn  Zn4  1  0.49787700  0.74670900  0.00141900  1
  Zn  Zn5  1  0.00282900  0.74121600  0.50410000  1
  O  O0  1  0.60683700  0.14962800  0.86362900  1
  O  O1  1  0.89925100  0.11536200  0.60557000  1
  O  O2  1  0.14172600  0.13468200  0.85141400  1
  O  O3  1  0.36249100  0.11373300  0.63711500  1
  O  O4  1  0.64938300  0.10822600  0.38628600  1
  O  O5  1  0.88674400  0.10124200  0.14360100  1
  O  O6  1  0.11288000  0.13468600  0.38771000  1
  O  O7  1  0.36338600  0.14354600  0.10068300  1
  O  O8  1  0.86338600  0.85645400  0.89931700  1
  O  O9  1  0.61288000  0.86531400  0.61229000  1
  O  O10  1  0.38674400  0.89875800  0.85639900  1
  O  O11  1  0.14938300  0.89177400  0.61371400  1
  O  O12  1  0.86249100  0.88626700  0.36288500  1
  O  O13  1  0.64172600  0.86531800  0.14858600  1
  O  O14  1  0.39925100  0.88463800  0.39443000  1
  O  O15  1  0.10683700  0.85037200  0.13637100  1
  O  O16  1  0.63753500  0.61163300  0.86246500  1
  O  O17  1  0.09800800  0.61028600  0.89756600  1
  O  O18  1  0.85335900  0.63903600  0.65123800  1
  O  O19  1  0.40024500  0.65108200  0.63979500  1
  O  O20  1  0.63743800  0.64686700  0.40249300  1
  O  O21  1  0.11421900  0.59940300  0.35732000  1
  O  O22  1  0.88848800  0.64007600  0.11124100  1
  O  O23  1  0.35048300  0.60560200  0.11550900  1
  O  O24  1  0.85048300  0.39439800  0.88449100  1
  O  O25  1  0.38848800  0.35992400  0.88875900  1
  O  O26  1  0.61421900  0.40059700  0.64268000  1
  O  O27  1  0.13743800  0.35313300  0.59750700  1
  O  O28  1  0.90024500  0.34891800  0.36020500  1
  O  O29  1  0.35335900  0.36096400  0.34876200  1
  O  O30  1  0.59800800  0.38971400  0.10243400  1
  O  O31  1  0.13753500  0.38836700  0.13753500  1
loop_
_geom_bond_atom_site_label_1
_geom_bond_atom_site_label_2
_geom_bond_distance
_geom_bond_site_symmetry_2
Mn0 O7 1.882742 1_556
Mn0 O10 1.904582 1_545
Mn0 O25 1.937877 1_555
Mn0 O2 1.939066 1_555
Mn0 O0 1.941039 1_555
Mn0 O3 1.980065 1_555
Mn1 O28 1.842271 1_555
Mn1 O4 1.876747 1_555
Mn1 O5 1.926527 1_555
Mn1 O1 1.939879 1_555
Mn1 O6 1.982827 1_655
Mn1 O12 2.014642 1_545
Mn2 O1 1.876502 1_455
Mn2 O2 1.877631 1_555
Mn2 O27 1.895695 1_555
Mn2 O11 1.961465 1_545
Mn2 O3 1.981264 1_555
Mn2 O6 1.982277 1_555
Mn3 O19 1.842271 1_555
Mn3 O11 1.876747 1_555
Mn3 O10 1.926527 1_555
Mn3 O14 1.939879 1_555
Mn3 O9 1.982827 1_555
Mn3 O3 2.014642 1_565
Mn4 O14 1.876502 1_555
Mn4 O13 1.877631 1_555
Mn4 O20 1.895695 1_555
Mn4 O4 1.961465 1_565
Mn4 O12 1.981264 1_555
Mn4 O9 1.982277 1_555
Mn5 O8 1.882742 1_554
Mn5 O5 1.904582 1_565
Mn5 O22 1.937877 1_555
Mn5 O13 1.939066 1_555
Mn5 O15 1.941039 1_655
Mn5 O12 1.980065 1_555
Mn6 O17 1.838292 1_655
Mn6 O18 1.889628 1_555
Mn6 O8 1.927987 1_555
Mn6 O24 1.931593 1_555
Mn6 O22 1.949326 1_556
Mn6 O16 2.000774 1_555
Mn7 O20 1.807926 1_555
Mn7 O19 1.848250 1_555
Mn7 O26 1.865860 1_555
Mn7 O18 1.955232 1_555
Mn7 O9 1.999484 1_555
Mn7 O16 2.031712 1_555
Mn8 O15 1.874440 1_555
Mn8 O17 1.878406 1_554
Mn8 O23 1.898304 1_555
Mn8 O22 1.947751 1_455
Mn8 O21 1.966375 1_555
Mn8 O31 1.973588 1_555
Mn9 O0 1.874440 1_555
Mn9 O30 1.878406 1_556
Mn9 O24 1.898304 1_555
Mn9 O25 1.947751 1_555
Mn9 O26 1.966375 1_555
Mn9 O16 1.973588 1_555
Mn10 O27 1.807926 1_555
Mn10 O28 1.848250 1_455
Mn10 O21 1.865860 1_555
Mn10 O29 1.955232 1_555
Mn10 O6 1.999484 1_555
Mn10 O31 2.031712 1_555
Mn11 O30 1.838292 1_555
Mn11 O29 1.889628 1_555
Mn11 O7 1.927987 1_555
Mn11 O23 1.931593 1_555
Mn11 O25 1.949326 1_554
Mn11 O31 2.000774 1_555
O0 Zn2 1.952999 1_555
O1 Zn2 1.947945 1_555
O2 Zn0 1.975010 1_455
O3 Zn1 2.038967 1_555
O4 Zn1 1.969935 1_555
O5 Zn0 1.966875 1_554
O6 Zn3 2.008489 1_545
O7 Zn3 1.948101 1_545
O8 Zn2 1.948101 1_565
O9 Zn2 2.008489 1_565
O10 Zn4 1.966875 1_556
O11 Zn5 1.969935 1_555
O12 Zn5 2.038967 1_655
O13 Zn4 1.975010 1_555
O14 Zn3 1.947945 1_555
O15 Zn3 1.952999 1_555
O16 Zn4 1.986325 1_556
O18 Zn5 1.932201 1_655
O21 Zn5 1.934296 1_555
O23 Zn4 1.935536 1_555
O24 Zn0 1.935536 1_555
O26 Zn1 1.934296 1_555
O29 Zn1 1.932201 1_555
O31 Zn0 1.986325 1_454
