# generated using pymatgen
data_Li4FeNi5(PO4)6
_symmetry_space_group_name_H-M   'P 1'
_cell_length_a   8.33095700
_cell_length_b   8.39599640
_cell_length_c   8.41041421
_cell_angle_alpha   63.25094261
_cell_angle_beta   63.44243248
_cell_angle_gamma   63.58182306
_symmetry_Int_Tables_number   1
_chemical_formula_structural   Li4FeNi5(PO4)6
_chemical_formula_sum   'Li4 Fe1 Ni5 P6 O24'
_cell_volume   447.49519432
_cell_formula_units_Z   1
loop_
 _symmetry_equiv_pos_site_id
 _symmetry_equiv_pos_as_xyz
  1  'x, y, z'
loop_
 _atom_site_type_symbol
 _atom_site_label
 _atom_site_symmetry_multiplicity
 _atom_site_fract_x
 _atom_site_fract_y
 _atom_site_fract_z
 _atom_site_occupancy
  Li  Li0  1  0.74744600  0.14558000  0.35613700  1
  Li  Li1  1  0.26450200  0.85423700  0.64528900  1
  Li  Li2  1  0.64462000  0.26373400  0.85484100  1
  Li  Li3  1  0.85474600  0.64461000  0.26505600  1
  Fe  Fe0  1  0.85100200  0.84943200  0.85168100  1
  Ni  Ni0  1  0.00784900  0.00243200  0.99698800  1
  Ni  Ni1  1  0.35795900  0.35636700  0.35677000  1
  Ni  Ni2  1  0.49353000  0.50250400  0.49885900  1
  Ni  Ni3  1  0.14257000  0.14446100  0.14498400  1
  Ni  Ni4  1  0.64549400  0.64649300  0.64846000  1
  P  P0  1  0.05597200  0.74687000  0.44583800  1
  P  P1  1  0.44254400  0.05207100  0.75145400  1
  P  P2  1  0.74921700  0.44476700  0.05199500  1
  P  P3  1  0.24934300  0.54768800  0.95321600  1
  P  P4  1  0.55239600  0.95431500  0.25032000  1
  P  P5  1  0.94793200  0.24872400  0.54609000  1
  O  O0  1  0.47266200  0.89590400  0.68403700  1
  O  O1  1  0.68010000  0.47468900  0.89778500  1
  O  O2  1  0.89815600  0.67849900  0.47625000  1
  O  O3  1  0.05366300  0.91199500  0.25801400  1
  O  O4  1  0.01296000  0.81578200  0.60791400  1
  O  O5  1  0.25081200  0.59830200  0.43142000  1
  O  O6  1  0.24863000  0.07235700  0.90365600  1
  O  O7  1  0.45105000  0.24061900  0.58963100  1
  O  O8  1  0.17984500  0.39213300  0.98848200  1
  O  O9  1  0.60305000  0.42879200  0.25174200  1
  O  O10  1  0.09654100  0.74912900  0.92937500  1
  O  O11  1  0.38949500  0.00054700  0.18758700  1
  O  O12  1  0.60549600  0.00808300  0.82269400  1
  O  O13  1  0.89868900  0.24626900  0.07436300  1
  O  O14  1  0.40078200  0.56806100  0.75312700  1
  O  O15  1  0.82056200  0.60446700  0.01121900  1
  O  O16  1  0.56838800  0.75403400  0.40294300  1
  O  O17  1  0.75374300  0.92528600  0.09448500  1
  O  O18  1  0.74869300  0.40317800  0.57216100  1
  O  O19  1  0.96317300  0.18301200  0.39622600  1
  O  O20  1  0.92936000  0.09457000  0.74802000  1
  O  O21  1  0.11159100  0.30975400  0.50123700  1
  O  O22  1  0.31665800  0.51224200  0.10887500  1
  O  O23  1  0.53877600  0.10501200  0.31377800  1
loop_
_geom_bond_atom_site_label_1
_geom_bond_atom_site_label_2
_geom_bond_distance
_geom_bond_site_symmetry_2
Li0 O9 2.095694 1_555
Li0 O13 2.095893 1_555
Li0 O23 2.110677 1_555
Li0 O19 2.140621 1_555
Li0 O7 2.431390 1_555
Li0 O3 2.481464 1_645
Li1 O0 2.093742 1_555
Li1 O14 2.101529 1_555
Li1 O10 2.157937 1_555
Li1 O4 2.424248 1_555
Li1 O16 2.511108 1_555
Li1 O20 2.648156 1_465
Li2 O18 2.080675 1_555
Li2 O1 2.119446 1_555
Li2 O20 2.167128 1_555
Li2 O12 2.451592 1_555
Li2 O14 2.520854 1_555
Li2 O17 2.673510 1_546
Li3 O16 2.101212 1_555
Li3 O2 2.118405 1_555
Li3 O17 2.142698 1_555
Li3 O15 2.455434 1_555
Li3 O18 2.530015 1_555
Li3 O10 2.656289 1_654
Fe0 O12 1.935528 1_565
Fe0 O15 1.941774 1_556
Fe0 O4 1.952491 1_655
Fe0 O17 2.112865 1_556
Fe0 O10 2.118383 1_655
Fe0 O20 2.119843 1_565
Ni0 O6 2.051764 1_555
Ni0 O13 2.110720 1_456
Ni0 O3 2.128983 1_546
Ni0 O10 2.169544 1_545
Ni0 O20 2.174077 1_455
Ni0 O17 2.182477 1_446
Ni1 O21 1.974565 1_555
Ni1 O22 1.990619 1_555
Ni1 O23 2.055390 1_555
Ni1 O9 2.080309 1_555
Ni1 O5 2.085788 1_555
Ni1 O7 2.087027 1_555
Ni2 O5 2.055500 1_555
Ni2 O7 2.117197 1_555
Ni2 O9 2.120092 1_555
Ni2 O14 2.162577 1_555
Ni2 O16 2.165207 1_555
Ni2 O18 2.173926 1_555
Ni3 O11 1.969187 1_555
Ni3 O8 1.974425 1_554
Ni3 O19 2.040762 1_455
Ni3 O3 2.061153 1_545
Ni3 O13 2.070789 1_455
Ni3 O6 2.072008 1_554
Ni4 O1 2.002168 1_555
Ni4 O2 2.006863 1_555
Ni4 O0 2.010864 1_555
Ni4 O14 2.105430 1_555
Ni4 O18 2.109058 1_555
Ni4 O16 2.117398 1_555
O0 P1 1.533916 1_565
O1 P2 1.523998 1_556
O2 P0 1.536961 1_655
O3 P0 1.565202 1_555
O4 P0 1.552407 1_555
O5 P0 1.537497 1_555
O6 P1 1.542624 1_555
O7 P1 1.561258 1_555
O8 P3 1.516427 1_555
O9 P2 1.560869 1_555
O10 P3 1.590075 1_555
O11 P4 1.502659 1_545
O12 P1 1.555735 1_555
O13 P2 1.563362 1_555
O14 P3 1.577129 1_555
O15 P2 1.543279 1_555
O16 P4 1.582291 1_555
O17 P4 1.596488 1_555
O18 P5 1.581143 1_555
O19 P5 1.526336 1_555
O20 P5 1.596228 1_555
O21 P5 1.500528 1_455
O22 P3 1.508052 1_554
O23 P4 1.524644 1_545
