# generated using pymatgen
data_Mn12O7F17
_symmetry_space_group_name_H-M   'P 1'
_cell_length_a   4.78668200
_cell_length_b   5.78182965
_cell_length_c   15.88913849
_cell_angle_alpha   90.19559328
_cell_angle_beta   90.45231973
_cell_angle_gamma   92.73035285
_symmetry_Int_Tables_number   1
_chemical_formula_structural   Mn12O7F17
_chemical_formula_sum   'Mn12 O7 F17'
_cell_volume   439.22824426
_cell_formula_units_Z   1
loop_
 _symmetry_equiv_pos_site_id
 _symmetry_equiv_pos_as_xyz
  1  'x, y, z'
loop_
 _atom_site_type_symbol
 _atom_site_label
 _atom_site_symmetry_multiplicity
 _atom_site_fract_x
 _atom_site_fract_y
 _atom_site_fract_z
 _atom_site_occupancy
  Mn  Mn0  1  0.99667600  0.16379100  0.59272600  1
  Mn  Mn1  1  0.96952700  0.85545800  0.75670300  1
  Mn  Mn2  1  0.00148500  0.15663700  0.91783200  1
  Mn  Mn3  1  0.97157200  0.14248500  0.25331900  1
  Mn  Mn4  1  0.97411100  0.84474000  0.41190800  1
  Mn  Mn5  1  0.99033100  0.83097500  0.09117100  1
  Mn  Mn6  1  0.52630500  0.32768500  0.41026800  1
  Mn  Mn7  1  0.47289500  0.33641500  0.07389200  1
  Mn  Mn8  1  0.51079000  0.32355200  0.73940000  1
  Mn  Mn9  1  0.49252800  0.65831900  0.91240400  1
  Mn  Mn10  1  0.46947100  0.64906000  0.58298800  1
  Mn  Mn11  1  0.52995000  0.66274200  0.25400500  1
  O  O0  1  0.78495100  0.11677700  0.69614200  1
  O  O1  1  0.79394500  0.10069900  0.35981300  1
  O  O2  1  0.77966800  0.88950300  0.86724100  1
  O  O3  1  0.77721300  0.88325500  0.20133500  1
  O  O4  1  0.72785100  0.61555400  0.35663300  1
  O  O5  1  0.26522800  0.39181400  0.96333000  1
  O  O6  1  0.28462000  0.36679100  0.63870200  1
  F  F0  1  0.78475900  0.11875400  0.02639200  1
  F  F1  1  0.75707000  0.90125900  0.53283500  1
  F  F2  1  0.73303100  0.38706200  0.84994100  1
  F  F3  1  0.73877500  0.61429400  0.68818700  1
  F  F4  1  0.73383100  0.39683000  0.52504100  1
  F  F5  1  0.73259300  0.38324800  0.18409000  1
  F  F6  1  0.72560300  0.61457500  0.02084100  1
  F  F7  1  0.27813800  0.61739800  0.79978100  1
  F  F8  1  0.23802000  0.62172200  0.46725300  1
  F  F9  1  0.29745100  0.62742800  0.14650300  1
  F  F10  1  0.26502500  0.38662400  0.29820200  1
  F  F11  1  0.24165300  0.11808000  0.81481000  1
  F  F12  1  0.22084200  0.10770100  0.47790900  1
  F  F13  1  0.22174100  0.87476200  0.64849300  1
  F  F14  1  0.24686300  0.89209000  0.98230100  1
  F  F15  1  0.21134800  0.12789300  0.14812900  1
  F  F16  1  0.25414100  0.89402700  0.30948100  1
loop_
_geom_bond_atom_site_label_1
_geom_bond_atom_site_label_2
_geom_bond_distance
_geom_bond_site_symmetry_2
Mn0 O6 1.906590 1_655
Mn0 O0 1.950427 1_555
Mn1 O2 1.997327 1_555
Mn1 O0 2.028062 1_565
Mn2 O5 1.944395 1_555
Mn2 O2 1.995215 1_445
Mn3 O3 1.908090 1_545
Mn3 O1 1.910606 1_555
Mn4 O1 1.933317 1_565
Mn4 O4 1.934859 1_555
Mn5 O3 2.061535 1_555
Mn6 O1 2.043411 1_555
Mn6 O4 2.072904 1_555
Mn7 O5 2.045343 1_554
Mn8 O0 1.944744 1_555
Mn8 O6 1.948259 1_555
Mn9 O2 2.009434 1_555
Mn9 O5 2.018799 1_555
Mn10 O6 2.028486 1_555
Mn11 O3 1.898923 1_555
Mn11 O4 1.906345 1_555
F0 Mn2 2.026998 1_654
F0 Mn7 2.138249 1_555
F0 Mn5 2.224389 1_545
F0 F15 2.800089 1_655
F0 F6 2.895669 1_555
F0 F14 2.912275 1_544
F0 F5 2.949498 1_555
F1 Mn0 2.081371 1_565
F1 Mn10 2.119069 1_555
F1 Mn4 2.222063 1_555
F1 F12 2.626729 1_665
F1 F4 2.875807 1_565
F1 F13 2.884041 1_655
F1 F4 2.915514 1_555
F1 F12 3.006362 1_565
F2 Mn8 2.068895 1_555
F2 Mn2 2.177358 1_655
F2 Mn9 2.224746 1_555
F2 O5 2.886184 1_555
F2 F3 2.890186 1_555
F2 O2 2.909810 1_545
F2 O2 2.914855 1_555
F3 Mn1 2.042882 1_555
F3 Mn10 2.118740 1_555
F3 Mn8 2.127790 1_555
F3 F7 2.841001 1_555
F3 F4 2.876658 1_555
F4 Mn6 2.097822 1_555
F4 Mn0 2.169116 1_555
F4 Mn10 2.181931 1_555
F4 O6 2.818346 1_555
F4 F8 2.846484 1_655
F5 Mn3 2.144440 1_555
F5 Mn7 2.148199 1_555
F5 Mn11 2.222714 1_555
F5 F9 2.637151 1_555
F5 O3 2.900545 1_555
F5 O3 2.922526 1_545
F5 F6 2.923154 1_555
F6 Mn5 2.058398 1_555
F6 Mn9 2.068041 1_554
F6 Mn7 2.144833 1_555
F6 F9 2.875836 1_555
F7 Mn9 2.063087 1_555
F7 Mn1 2.174720 1_455
F7 Mn8 2.287600 1_555
F8 Mn4 2.043817 1_455
F8 Mn10 2.140844 1_555
F8 Mn6 2.418056 1_555
F9 Mn11 2.035643 1_555
F9 Mn5 2.114385 1_455
F9 Mn7 2.236986 1_555
F9 O3 2.802978 1_555
F10 Mn3 2.064609 1_455
F10 Mn11 2.116320 1_555
F10 Mn6 2.204660 1_555
F10 F9 2.789382 1_555
F10 F15 2.814105 1_555
F10 F16 2.852380 1_545
F10 F5 2.892221 1_555
F10 F16 2.941539 1_555
F11 Mn2 2.025457 1_555
F11 Mn8 2.096417 1_555
F11 Mn1 2.153554 1_445
F11 F2 2.808441 1_555
F11 F7 2.894730 1_555
F12 Mn4 2.145851 1_445
F12 Mn0 2.155174 1_455
F12 Mn6 2.183511 1_555
F12 O1 2.762120 1_455
F12 F8 2.819513 1_545
F12 F16 2.952376 1_545
F12 F8 2.974639 1_555
F13 Mn10 2.085671 1_555
F13 Mn1 2.108889 1_455
F13 Mn0 2.214712 1_465
F13 F3 2.776333 1_455
F13 F7 2.849210 1_555
F13 O6 2.851320 1_565
F14 Mn9 2.145906 1_555
F14 Mn5 2.149755 1_456
F14 Mn2 2.220653 1_565
F14 O2 2.876757 1_455
F15 Mn3 2.038740 1_455
F15 Mn7 2.074009 1_555
F15 Mn5 2.164876 1_445
F15 F5 2.845208 1_455
F15 F5 2.890030 1_555
F15 F16 2.912882 1_545
F16 Mn11 2.118183 1_555
F16 Mn4 2.127867 1_455
F16 Mn3 2.205497 1_465
F16 O3 2.844649 1_455
F16 O1 2.900092 1_565
F16 F8 2.964378 1_555
