# generated using pymatgen
data_Li2Ni2(SO4)3
_symmetry_space_group_name_H-M   'P 1'
_cell_length_a   8.57581800
_cell_length_b   8.75513000
_cell_length_c   12.23252900
_cell_angle_alpha   90.00000000
_cell_angle_beta   90.00000000
_cell_angle_gamma   90.00000000
_symmetry_Int_Tables_number   1
_chemical_formula_structural   Li2Ni2(SO4)3
_chemical_formula_sum   'Li8 Ni8 S12 O48'
_cell_volume   918.44765308
_cell_formula_units_Z   4
loop_
 _symmetry_equiv_pos_site_id
 _symmetry_equiv_pos_as_xyz
  1  'x, y, z'
loop_
 _atom_site_type_symbol
 _atom_site_label
 _atom_site_symmetry_multiplicity
 _atom_site_fract_x
 _atom_site_fract_y
 _atom_site_fract_z
 _atom_site_occupancy
  Li  Li0  1  0.21720100  0.27709700  0.18263100  1
  Li  Li1  1  0.78279900  0.77709700  0.18263100  1
  Li  Li2  1  0.28279900  0.77709700  0.31736900  1
  Li  Li3  1  0.71720100  0.27709700  0.31736900  1
  Li  Li4  1  0.28279900  0.72290300  0.68263100  1
  Li  Li5  1  0.71720100  0.22290300  0.68263100  1
  Li  Li6  1  0.21720100  0.22290300  0.81736900  1
  Li  Li7  1  0.78279900  0.72290300  0.81736900  1
  Ni  Ni0  1  0.25223400  0.96291700  0.11019100  1
  Ni  Ni1  1  0.74776600  0.46291700  0.11019100  1
  Ni  Ni2  1  0.75223400  0.96291700  0.38980900  1
  Ni  Ni3  1  0.24776600  0.46291700  0.38980900  1
  Ni  Ni4  1  0.24776600  0.03708300  0.61019100  1
  Ni  Ni5  1  0.75223400  0.53708300  0.61019100  1
  Ni  Ni6  1  0.25223400  0.53708300  0.88980900  1
  Ni  Ni7  1  0.74776600  0.03708300  0.88980900  1
  S  S0  1  0.45839000  0.25000000  0.00000000  1
  S  S1  1  0.54161000  0.75000000  0.00000000  1
  S  S2  1  0.10219400  0.60577000  0.14534900  1
  S  S3  1  0.89780600  0.10577000  0.14534900  1
  S  S4  1  0.39780600  0.10577000  0.35465100  1
  S  S5  1  0.60219400  0.60577000  0.35465100  1
  S  S6  1  0.04161000  0.75000000  0.50000000  1
  S  S7  1  0.95839000  0.25000000  0.50000000  1
  S  S8  1  0.39780600  0.39423000  0.64534900  1
  S  S9  1  0.60219400  0.89423000  0.64534900  1
  S  S10  1  0.10219400  0.89423000  0.85465100  1
  S  S11  1  0.89780600  0.39423000  0.85465100  1
  O  O0  1  0.13730400  0.57228500  0.03127900  1
  O  O1  1  0.86269600  0.07228500  0.03127900  1
  O  O2  1  0.54972100  0.36275500  0.06056900  1
  O  O3  1  0.45027900  0.86275500  0.06056900  1
  O  O4  1  0.35473800  0.17166500  0.08112500  1
  O  O5  1  0.64526200  0.67166500  0.08112500  1
  O  O6  1  0.07068600  0.10975700  0.16092200  1
  O  O7  1  0.92931400  0.60975700  0.16092200  1
  O  O8  1  0.16595100  0.75710900  0.17951900  1
  O  O9  1  0.83404900  0.25710900  0.17951900  1
  O  O10  1  0.82999000  0.98505800  0.21749100  1
  O  O11  1  0.17001000  0.48505800  0.21749100  1
  O  O12  1  0.32999000  0.98505800  0.28250900  1
  O  O13  1  0.67001000  0.48505800  0.28250900  1
  O  O14  1  0.66595100  0.75710900  0.32048100  1
  O  O15  1  0.33404900  0.25710900  0.32048100  1
  O  O16  1  0.42931400  0.60975700  0.33907800  1
  O  O17  1  0.57068600  0.10975700  0.33907800  1
  O  O18  1  0.14526200  0.67166500  0.41887500  1
  O  O19  1  0.85473800  0.17166500  0.41887500  1
  O  O20  1  0.04972100  0.36275500  0.43943100  1
  O  O21  1  0.95027900  0.86275500  0.43943100  1
  O  O22  1  0.63730400  0.57228500  0.46872100  1
  O  O23  1  0.36269600  0.07228500  0.46872100  1
  O  O24  1  0.36269600  0.42771500  0.53127900  1
  O  O25  1  0.63730400  0.92771500  0.53127900  1
  O  O26  1  0.04972100  0.13724500  0.56056900  1
  O  O27  1  0.95027900  0.63724500  0.56056900  1
  O  O28  1  0.14526200  0.82833500  0.58112500  1
  O  O29  1  0.85473800  0.32833500  0.58112500  1
  O  O30  1  0.42931400  0.89024300  0.66092200  1
  O  O31  1  0.57068600  0.39024300  0.66092200  1
  O  O32  1  0.33404900  0.24289100  0.67951900  1
  O  O33  1  0.66595100  0.74289100  0.67951900  1
  O  O34  1  0.32999000  0.51494200  0.71749100  1
  O  O35  1  0.67001000  0.01494200  0.71749100  1
  O  O36  1  0.17001000  0.01494200  0.78250900  1
  O  O37  1  0.82999000  0.51494200  0.78250900  1
  O  O38  1  0.16595100  0.74289100  0.82048100  1
  O  O39  1  0.83404900  0.24289100  0.82048100  1
  O  O40  1  0.07068600  0.39024300  0.83907800  1
  O  O41  1  0.92931400  0.89024300  0.83907800  1
  O  O42  1  0.35473800  0.32833500  0.91887500  1
  O  O43  1  0.64526200  0.82833500  0.91887500  1
  O  O44  1  0.45027900  0.63724500  0.93943100  1
  O  O45  1  0.54972100  0.13724500  0.93943100  1
  O  O46  1  0.13730400  0.92771500  0.96872100  1
  O  O47  1  0.86269600  0.42771500  0.96872100  1
loop_
_geom_bond_atom_site_label_1
_geom_bond_atom_site_label_2
_geom_bond_distance
_geom_bond_site_symmetry_2
Li0 O11 1.913286 1_555
Li0 O4 1.945513 1_555
Li0 O6 1.948268 1_555
Li0 O15 1.969319 1_555
Li1 O10 1.913286 1_555
Li1 O5 1.945513 1_555
Li1 O7 1.948268 1_555
Li1 O14 1.969319 1_555
Li2 O12 1.913286 1_555
Li2 O18 1.945513 1_555
Li2 O16 1.948268 1_555
Li2 O8 1.969319 1_555
Li3 O13 1.913286 1_555
Li3 O19 1.945513 1_555
Li3 O17 1.948268 1_555
Li3 O9 1.969319 1_555
Li4 O34 1.913286 1_555
Li4 O28 1.945513 1_555
Li4 O30 1.948268 1_555
Li4 O38 1.969319 1_555
Li5 O35 1.913286 1_555
Li5 O29 1.945513 1_555
Li5 O31 1.948268 1_555
Li5 O39 1.969319 1_555
Li6 O36 1.913286 1_555
Li6 O42 1.945513 1_555
Li6 O40 1.948268 1_555
Li6 O32 1.969319 1_555
Li7 O37 1.913286 1_555
Li7 O43 1.945513 1_555
Li7 O41 1.948268 1_555
Li7 O33 1.969319 1_555
Ni0 O3 2.005496 1_555
Ni0 O46 2.015238 1_554
Ni0 O4 2.058965 1_565
Ni0 O6 2.112318 1_565
Ni0 O8 2.124495 1_555
Ni0 O12 2.219326 1_555
Ni1 O2 2.005496 1_555
Ni1 O47 2.015238 1_554
Ni1 O5 2.058965 1_555
Ni1 O7 2.112318 1_555
Ni1 O9 2.124495 1_555
Ni1 O13 2.219326 1_555
Ni2 O21 2.005496 1_555
Ni2 O25 2.015238 1_555
Ni2 O19 2.058965 1_565
Ni2 O17 2.112318 1_565
Ni2 O14 2.124495 1_555
Ni2 O10 2.219326 1_555
Ni3 O20 2.005496 1_555
Ni3 O24 2.015238 1_555
Ni3 O18 2.058965 1_555
Ni3 O16 2.112318 1_555
Ni3 O15 2.124495 1_555
Ni3 O11 2.219326 1_555
Ni4 O26 2.005496 1_555
Ni4 O23 2.015238 1_555
Ni4 O28 2.058965 1_545
Ni4 O30 2.112318 1_545
Ni4 O32 2.124495 1_555
Ni4 O36 2.219326 1_555
Ni5 O27 2.005496 1_555
Ni5 O22 2.015238 1_555
Ni5 O29 2.058965 1_555
Ni5 O31 2.112318 1_555
Ni5 O33 2.124495 1_555
Ni5 O37 2.219326 1_555
Ni6 O44 2.005496 1_555
Ni6 O0 2.015238 1_556
Ni6 O42 2.058965 1_555
Ni6 O40 2.112318 1_555
Ni6 O38 2.124495 1_555
Ni6 O34 2.219326 1_555
Ni7 O45 2.005496 1_555
Ni7 O1 2.015238 1_556
Ni7 O43 2.058965 1_545
Ni7 O41 2.112318 1_545
Ni7 O39 2.124495 1_555
Ni7 O35 2.219326 1_555
O0 S2 1.457274 1_555
O1 S3 1.457274 1_555
O2 S0 1.461830 1_555
O3 S1 1.461830 1_555
O4 S0 1.498432 1_555
O5 S1 1.498432 1_555
O6 S3 1.495183 1_455
O7 S2 1.495183 1_655
O8 S2 1.493075 1_555
O9 S3 1.493075 1_555
O10 S3 1.494635 1_565
O11 S2 1.494635 1_555
O12 S4 1.494635 1_565
O13 S5 1.494635 1_555
O14 S5 1.493075 1_555
O15 S4 1.493075 1_555
O16 S5 1.495183 1_555
O17 S4 1.495183 1_555
O18 S6 1.498432 1_555
O19 S7 1.498432 1_555
O20 S7 1.461830 1_455
O21 S6 1.461830 1_655
O22 S5 1.457274 1_555
O23 S4 1.457274 1_555
O24 S8 1.457274 1_555
O25 S9 1.457274 1_555
O26 S7 1.461830 1_455
O27 S6 1.461830 1_655
O28 S6 1.498432 1_555
O29 S7 1.498432 1_555
O30 S9 1.495183 1_555
O31 S8 1.495183 1_555
O32 S8 1.493075 1_555
O33 S9 1.493075 1_555
O34 S8 1.494635 1_555
O35 S9 1.494635 1_545
O36 S10 1.494635 1_545
O37 S11 1.494635 1_555
O38 S10 1.493075 1_555
O39 S11 1.493075 1_555
O40 S11 1.495183 1_455
O41 S10 1.495183 1_655
O42 S0 1.498432 1_556
O43 S1 1.498432 1_556
O44 S1 1.461830 1_556
O45 S0 1.461830 1_556
O46 S10 1.457274 1_555
O47 S11 1.457274 1_555
