# generated using pymatgen
data_VCr2O6
_symmetry_space_group_name_H-M   'P 1'
_cell_length_a   4.44210400
_cell_length_b   16.65831800
_cell_length_c   4.91906700
_cell_angle_alpha   90.00001853
_cell_angle_beta   89.99817570
_cell_angle_gamma   90.00011006
_symmetry_Int_Tables_number   1
_chemical_formula_structural   VCr2O6
_chemical_formula_sum   'V4 Cr8 O24'
_cell_volume   364.00102641
_cell_formula_units_Z   4
loop_
 _symmetry_equiv_pos_site_id
 _symmetry_equiv_pos_as_xyz
  1  'x, y, z'
loop_
 _atom_site_type_symbol
 _atom_site_label
 _atom_site_symmetry_multiplicity
 _atom_site_fract_x
 _atom_site_fract_y
 _atom_site_fract_z
 _atom_site_occupancy
  V  V0  1  0.99999600  0.38769800  0.25000100  1
  V  V1  1  0.00000500  0.61233200  0.75000200  1
  V  V2  1  0.50000400  0.11230800  0.75000000  1
  V  V3  1  0.49999400  0.88769000  0.24999800  1
  Cr  Cr0  1  0.99999800  0.05048200  0.24999900  1
  Cr  Cr1  1  0.00000300  0.28238100  0.74999700  1
  Cr  Cr2  1  0.99999600  0.71756800  0.25000300  1
  Cr  Cr3  1  0.99999800  0.94952000  0.74999500  1
  Cr  Cr4  1  0.49999600  0.21758400  0.24999800  1
  Cr  Cr5  1  0.49999900  0.55046700  0.25000400  1
  Cr  Cr6  1  0.50000500  0.78243000  0.75000400  1
  Cr  Cr7  1  0.49999900  0.44953100  0.75000400  1
  O  O0  1  0.23957300  0.04144900  0.59195400  1
  O  O1  1  0.23953000  0.95853200  0.09197700  1
  O  O2  1  0.27491600  0.20577200  0.58735800  1
  O  O3  1  0.27490700  0.79421200  0.08738000  1
  O  O4  1  0.22506500  0.37154700  0.56986900  1
  O  O5  1  0.22510400  0.62846100  0.06989200  1
  O  O6  1  0.27494700  0.12844000  0.06985500  1
  O  O7  1  0.27487900  0.87155000  0.56987700  1
  O  O8  1  0.22505100  0.29422200  0.08739000  1
  O  O9  1  0.22508700  0.70580300  0.58738400  1
  O  O10  1  0.26043000  0.45854500  0.09195800  1
  O  O11  1  0.26048300  0.54147100  0.59196500  1
  O  O12  1  0.73956900  0.45854400  0.40804800  1
  O  O13  1  0.73951700  0.54147200  0.90804000  1
  O  O14  1  0.77495000  0.29422200  0.41260900  1
  O  O15  1  0.77491700  0.70580300  0.91261300  1
  O  O16  1  0.72505100  0.12843900  0.43014400  1
  O  O17  1  0.72512500  0.87155000  0.93011800  1
  O  O18  1  0.77493900  0.37154700  0.93013400  1
  O  O19  1  0.77489700  0.62846100  0.43010900  1
  O  O20  1  0.72508100  0.20577200  0.91264100  1
  O  O21  1  0.72509800  0.79421300  0.41261800  1
  O  O22  1  0.76042300  0.04144900  0.90804300  1
  O  O23  1  0.76047000  0.95853300  0.40801800  1
loop_
_geom_bond_atom_site_label_1
_geom_bond_atom_site_label_2
_geom_bond_distance
_geom_bond_site_symmetry_2
Cr0 O16 1.990808 1_555
Cr0 O6 1.990819 1_655
Cr0 O0 1.996190 1_655
Cr0 O22 1.996194 1_554
Cr0 O23 2.020498 1_545
Cr0 O1 2.020529 1_645
Cr1 O2 1.939055 1_555
Cr1 O20 1.939087 1_455
Cr1 O14 1.947516 1_455
Cr1 O8 1.947525 1_556
Cr1 O4 1.997704 1_555
Cr1 O18 1.997731 1_455
Cr2 O21 1.939359 1_555
Cr2 O3 1.939398 1_655
Cr2 O9 1.947445 1_655
Cr2 O15 1.947455 1_554
Cr2 O19 1.997008 1_555
Cr2 O5 1.997041 1_655
Cr3 O17 1.990697 1_555
Cr3 O7 1.990710 1_655
Cr3 O23 1.996145 1_555
Cr3 O1 1.996173 1_656
Cr3 O0 2.020397 1_665
Cr3 O22 2.020413 1_565
Cr4 O8 1.939432 1_555
Cr4 O14 1.939459 1_555
Cr4 O20 1.947356 1_554
Cr4 O2 1.947357 1_555
Cr4 O6 1.997464 1_555
Cr4 O16 1.997499 1_555
Cr5 O19 1.991020 1_555
Cr5 O5 1.991031 1_555
Cr5 O11 1.995971 1_555
Cr5 O13 1.995987 1_554
Cr5 O10 2.020330 1_555
Cr5 O12 2.020345 1_555
Cr6 O15 1.939221 1_555
Cr6 O9 1.939256 1_555
Cr6 O3 1.947415 1_556
Cr6 O21 1.947446 1_555
Cr6 O17 1.997261 1_555
Cr6 O7 1.997306 1_555
Cr7 O4 1.991075 1_555
Cr7 O18 1.991084 1_555
Cr7 O10 1.996091 1_556
Cr7 O12 1.996100 1_555
Cr7 O11 2.020424 1_555
Cr7 O13 2.020432 1_555
O0 V2 1.826504 1_555
O1 V3 1.826364 1_555
O2 V2 2.015928 1_555
O2 O20 2.561095 1_555
O3 V3 2.016055 1_555
O4 V0 1.883560 1_455
O5 V1 1.883669 1_554
O6 V2 1.883380 1_554
O7 V3 1.883634 1_555
O8 V0 2.015923 1_455
O9 V1 2.015929 1_555
O10 V0 1.826346 1_455
O11 V1 1.826610 1_555
O12 V0 1.826326 1_555
O13 V1 1.826627 1_655
O14 V0 2.015895 1_555
O14 O8 2.560597 1_655
O15 V1 2.015931 1_655
O15 O9 2.560867 1_655
O16 V2 1.883358 1_555
O17 V3 1.883676 1_556
O18 V0 1.883527 1_556
O19 V1 1.883703 1_655
O20 V2 2.015898 1_555
O21 V3 2.016087 1_555
O21 O3 2.561047 1_555
O22 V2 1.826467 1_555
O23 V3 1.826404 1_555
