# generated using pymatgen
data_Li2Co3NiO8
_symmetry_space_group_name_H-M   'P 1'
_cell_length_a   5.65085251
_cell_length_b   5.65085251
_cell_length_c   5.65085281
_cell_angle_alpha   60.22721747
_cell_angle_beta   60.22721747
_cell_angle_gamma   60.22721019
_symmetry_Int_Tables_number   1
_chemical_formula_structural   Li2Co3NiO8
_chemical_formula_sum   'Li2 Co3 Ni1 O8'
_cell_volume   128.24937869
_cell_formula_units_Z   1
loop_
 _symmetry_equiv_pos_site_id
 _symmetry_equiv_pos_as_xyz
  1  'x, y, z'
loop_
 _atom_site_type_symbol
 _atom_site_label
 _atom_site_symmetry_multiplicity
 _atom_site_fract_x
 _atom_site_fract_y
 _atom_site_fract_z
 _atom_site_occupancy
  Li  Li0  1  0.87455500  0.87455500  0.87455500  1
  Li  Li1  1  0.12544500  0.12544500  0.12544500  1
  Co  Co0  1  0.50000000  0.00000000  0.50000000  1
  Co  Co1  1  0.00000000  0.50000000  0.50000000  1
  Co  Co2  1  0.50000000  0.50000000  0.00000000  1
  Ni  Ni0  1  0.50000000  0.50000000  0.50000000  1
  O  O0  1  0.29088100  0.73501100  0.73501100  1
  O  O1  1  0.73501100  0.29088100  0.73501100  1
  O  O2  1  0.26559500  0.26559500  0.26559500  1
  O  O3  1  0.73501100  0.73501100  0.29088100  1
  O  O4  1  0.26498900  0.26498900  0.70911900  1
  O  O5  1  0.73440500  0.73440500  0.73440500  1
  O  O6  1  0.26498900  0.70911900  0.26498900  1
  O  O7  1  0.70911900  0.26498900  0.26498900  1
loop_
_geom_bond_atom_site_label_1
_geom_bond_atom_site_label_2
_geom_bond_distance
_geom_bond_site_symmetry_2
Li0 O0 1.926422 1_655
Li0 O1 1.926422 1_565
Li0 O3 1.926422 1_556
Li0 O5 1.936577 1_555
Li1 O7 1.926422 1_455
Li1 O6 1.926422 1_545
Li1 O4 1.926422 1_554
Li1 O2 1.936577 1_555
Co0 O5 1.885579 1_545
Co0 O2 1.885579 1_555
Co0 O4 1.904252 1_555
Co0 O3 1.904252 1_545
Co0 O7 1.904252 1_555
Co0 O0 1.904252 1_545
Co1 O5 1.885579 1_455
Co1 O2 1.885579 1_555
Co1 O4 1.904252 1_555
Co1 O3 1.904252 1_455
Co1 O6 1.904252 1_555
Co1 O1 1.904252 1_455
Co2 O5 1.885579 1_554
Co2 O2 1.885579 1_555
Co2 O7 1.904252 1_555
Co2 O6 1.904252 1_555
Co2 O0 1.904252 1_554
Co2 O1 1.904252 1_554
Ni0 O1 1.886292 1_555
Ni0 O0 1.886292 1_555
Ni0 O6 1.886292 1_555
Ni0 O7 1.886292 1_555
Ni0 O3 1.886292 1_555
Ni0 O4 1.886292 1_555
