# generated using pymatgen
data_Ba3LaCl9
_symmetry_space_group_name_H-M   'P 1'
_cell_length_a   7.18299100
_cell_length_b   7.70367800
_cell_length_c   29.93891431
_cell_angle_alpha   87.89920881
_cell_angle_beta   90.00000000
_cell_angle_gamma   90.00000000
_symmetry_Int_Tables_number   1
_chemical_formula_structural   Ba3LaCl9
_chemical_formula_sum   'Ba12 La4 Cl36'
_cell_volume   1655.56981102
_cell_formula_units_Z   4
loop_
 _symmetry_equiv_pos_site_id
 _symmetry_equiv_pos_as_xyz
  1  'x, y, z'
loop_
 _atom_site_type_symbol
 _atom_site_label
 _atom_site_symmetry_multiplicity
 _atom_site_fract_x
 _atom_site_fract_y
 _atom_site_fract_z
 _atom_site_occupancy
  Ba  Ba0  1  0.97338000  0.68408200  0.93306400  1
  Ba  Ba1  1  0.00475600  0.71296500  0.69199400  1
  Ba  Ba2  1  0.02662000  0.68408200  0.43306400  1
  Ba  Ba3  1  0.99524400  0.71296500  0.19199400  1
  Ba  Ba4  1  0.98963200  0.31283700  0.56985700  1
  Ba  Ba5  1  0.98617900  0.28122100  0.80821500  1
  Ba  Ba6  1  0.01036800  0.31283700  0.06985700  1
  Ba  Ba7  1  0.01382100  0.28122100  0.30821500  1
  Ba  Ba8  1  0.52434700  0.21915400  0.69212000  1
  Ba  Ba9  1  0.51481900  0.18247600  0.93063200  1
  Ba  Ba10  1  0.47565300  0.21915400  0.19212000  1
  Ba  Ba11  1  0.48518100  0.18247600  0.43063200  1
  La  La0  1  0.52005200  0.79285800  0.80667100  1
  La  La1  1  0.54402600  0.81812200  0.56697100  1
  La  La2  1  0.47994800  0.79285800  0.30667100  1
  La  La3  1  0.45597400  0.81812200  0.06697100  1
  Cl  Cl0  1  0.79087900  0.97624600  0.86776400  1
  Cl  Cl1  1  0.81001200  0.98230300  0.75311500  1
  Cl  Cl2  1  0.80415800  0.99228900  0.62707600  1
  Cl  Cl3  1  0.20912100  0.97624600  0.36776400  1
  Cl  Cl4  1  0.18998800  0.98230300  0.25311500  1
  Cl  Cl5  1  0.70049100  0.89118700  0.99425400  1
  Cl  Cl6  1  0.19584200  0.99228900  0.12707600  1
  Cl  Cl7  1  0.33552900  0.84693300  0.89060500  1
  Cl  Cl8  1  0.29950900  0.89118700  0.49425400  1
  Cl  Cl9  1  0.40273500  0.84068500  0.70953800  1
  Cl  Cl10  1  0.66447100  0.84693300  0.39060500  1
  Cl  Cl11  1  0.59726500  0.84068500  0.20953800  1
  Cl  Cl12  1  0.16274400  0.64675100  0.79572900  1
  Cl  Cl13  1  0.21461100  0.64986000  0.59951400  1
  Cl  Cl14  1  0.83725600  0.64675100  0.29572900  1
  Cl  Cl15  1  0.78538900  0.64986000  0.09951400  1
  Cl  Cl16  1  0.74366500  0.58967700  0.51193300  1
  Cl  Cl17  1  0.67979100  0.51181900  0.86625700  1
  Cl  Cl18  1  0.69249000  0.51711300  0.75265700  1
  Cl  Cl19  1  0.69875800  0.53073200  0.62735400  1
  Cl  Cl20  1  0.25633500  0.58967700  0.01193300  1
  Cl  Cl21  1  0.32020900  0.51181900  0.36625700  1
  Cl  Cl22  1  0.30751000  0.51711300  0.25265700  1
  Cl  Cl23  1  0.30124200  0.53073200  0.12735400  1
  Cl  Cl24  1  0.76431400  0.40050800  0.98975900  1
  Cl  Cl25  1  0.23568600  0.40050800  0.48975900  1
  Cl  Cl26  1  0.14692500  0.34413200  0.90094200  1
  Cl  Cl27  1  0.10525300  0.32187200  0.69875600  1
  Cl  Cl28  1  0.85307500  0.34413200  0.40094200  1
  Cl  Cl29  1  0.89474700  0.32187200  0.19875600  1
  Cl  Cl30  1  0.39657000  0.14390900  0.79749500  1
  Cl  Cl31  1  0.35740300  0.11908300  0.59871600  1
  Cl  Cl32  1  0.60343000  0.14390900  0.29749500  1
  Cl  Cl33  1  0.64259700  0.11908300  0.09871600  1
  Cl  Cl34  1  0.75289200  0.06045200  0.51082800  1
  Cl  Cl35  1  0.24710800  0.06045200  0.01082800  1
loop_
_geom_bond_atom_site_label_1
_geom_bond_atom_site_label_2
_geom_bond_distance
_geom_bond_site_symmetry_2
Ba0 Cl26 3.085759 1_655
Ba0 Cl24 3.104310 1_555
Ba0 Cl7 3.136829 1_655
Ba0 Cl5 3.155649 1_555
Ba0 Cl20 3.179534 1_656
Ba0 Cl0 3.206829 1_555
Ba0 Cl17 3.225436 1_555
Ba1 Cl9 3.074721 1_555
Ba1 Cl27 3.097524 1_555
Ba1 Cl1 3.144652 1_455
Ba1 Cl2 3.190200 1_455
Ba1 Cl13 3.205185 1_555
Ba1 Cl18 3.225696 1_455
Ba1 Cl19 3.278161 1_455
Ba1 Cl12 3.328263 1_555
Ba2 Cl28 3.085759 1_455
Ba2 Cl25 3.104310 1_555
Ba2 Cl10 3.136829 1_455
Ba2 Cl8 3.155649 1_555
Ba2 Cl16 3.179534 1_455
Ba2 Cl3 3.206829 1_555
Ba2 Cl21 3.225436 1_555
Ba3 Cl11 3.074721 1_555
Ba3 Cl29 3.097524 1_555
Ba3 Cl4 3.144652 1_655
Ba3 Cl6 3.190200 1_655
Ba3 Cl15 3.205185 1_555
Ba3 Cl22 3.225696 1_655
Ba3 Cl23 3.278161 1_655
Ba3 Cl14 3.328263 1_555
Ba4 Cl25 3.035087 1_655
Ba4 Cl31 3.139813 1_655
Ba4 Cl34 3.169719 1_555
Ba4 Cl13 3.210882 1_655
Ba4 Cl19 3.218399 1_555
Ba4 Cl16 3.225847 1_555
Ba4 Cl2 3.239957 1_545
Ba4 Cl27 3.950557 1_655
Ba5 Cl26 3.061649 1_655
Ba5 Cl12 3.098467 1_655
Ba5 Cl1 3.147029 1_545
Ba5 Cl30 3.152235 1_655
Ba5 Cl18 3.209007 1_555
Ba5 Cl0 3.218567 1_545
Ba5 Cl17 3.353386 1_555
Ba5 Cl27 3.390230 1_655
Ba6 Cl24 3.035087 1_454
Ba6 Cl33 3.139813 1_455
Ba6 Cl35 3.169719 1_555
Ba6 Cl15 3.210882 1_455
Ba6 Cl23 3.218399 1_555
Ba6 Cl20 3.225847 1_555
Ba6 Cl6 3.239957 1_545
Ba6 Cl29 3.950557 1_455
Ba7 Cl28 3.061649 1_455
Ba7 Cl14 3.098467 1_455
Ba7 Cl4 3.147029 1_545
Ba7 Cl32 3.152235 1_455
Ba7 Cl22 3.209007 1_555
Ba7 Cl3 3.218567 1_545
Ba7 Cl21 3.353386 1_555
Ba7 Cl29 3.390230 1_455
Ba8 Cl9 3.069899 1_545
Ba8 Cl27 3.120795 1_555
Ba8 Cl31 3.163902 1_555
Ba8 Cl18 3.212058 1_555
Ba8 Cl1 3.260385 1_545
Ba8 Cl19 3.278643 1_555
Ba8 Cl30 3.316199 1_555
Ba8 Cl2 3.337024 1_545
Ba9 Cl26 3.040242 1_555
Ba9 Cl24 3.063414 1_555
Ba9 Cl7 3.162831 1_545
Ba9 Cl5 3.182611 1_545
Ba9 Cl35 3.190721 1_556
Ba9 Cl0 3.196562 1_545
Ba9 Cl17 3.346252 1_555
Ba10 Cl11 3.069899 1_545
Ba10 Cl29 3.120795 1_555
Ba10 Cl33 3.163902 1_555
Ba10 Cl22 3.212058 1_555
Ba10 Cl4 3.260385 1_545
Ba10 Cl23 3.278643 1_555
Ba10 Cl32 3.316199 1_555
Ba10 Cl6 3.337024 1_545
Ba11 Cl28 3.040242 1_555
Ba11 Cl25 3.063414 1_555
Ba11 Cl10 3.162831 1_545
Ba11 Cl8 3.182611 1_545
Ba11 Cl34 3.190721 1_555
Ba11 Cl3 3.196562 1_545
Ba11 Cl21 3.346252 1_555
Cl0 La0 3.052077 1_555
Cl0 Cl1 3.433824 1_555
Cl0 Cl7 3.479661 1_555
Cl0 Cl17 3.667589 1_555
Cl0 Cl30 3.730546 1_565
Cl0 Cl5 3.874293 1_555
Cl0 Cl26 3.970608 1_665
Cl0 Cl7 4.088460 1_655
Cl1 La0 2.977792 1_555
Cl1 Cl9 3.399272 1_555
Cl1 Cl30 3.500862 1_565
Cl1 Cl18 3.682270 1_555
Cl1 Cl27 3.698241 1_665
Cl1 Cl2 3.771669 1_555
Cl1 Cl12 3.806252 1_655
Cl2 La1 2.950721 1_555
Cl2 Cl31 3.451395 1_565
Cl2 Cl34 3.519959 1_565
Cl2 Cl9 3.944845 1_555
Cl2 Cl27 4.016087 1_665
Cl3 La2 3.052077 1_555
Cl3 Cl4 3.433824 1_555
Cl3 Cl32 3.730546 1_565
Cl3 Cl8 3.874293 1_555
Cl4 La2 2.977792 1_555
Cl4 Cl6 3.771669 1_555
Cl5 La3 2.837502 1_556
Cl6 La3 2.950721 1_555
Cl7 La0 2.884731 1_555
Cl8 La1 2.837502 1_555
Cl9 La0 3.037122 1_555
Cl10 La2 2.884731 1_555
Cl10 Cl3 3.479661 1_555
Cl10 Cl14 3.508283 1_555
Cl10 Cl32 3.567846 1_565
Cl10 Cl21 3.667280 1_555
Cl10 Cl34 4.061819 1_565
Cl10 Cl3 4.088460 1_655
Cl11 La2 3.037122 1_555
Cl11 Cl4 3.399272 1_555
Cl11 Cl14 3.402921 1_555
Cl11 Cl22 3.460630 1_555
Cl11 Cl32 3.583856 1_565
Cl11 Cl33 3.897745 1_565
Cl11 Cl15 3.897756 1_555
Cl11 Cl6 3.944845 1_555
Cl11 Cl23 4.087488 1_555
Cl12 La0 2.826370 1_555
Cl12 Cl9 3.402921 1_555
Cl12 Cl7 3.508283 1_555
Cl12 Cl18 3.763565 1_455
Cl12 Cl26 3.851189 1_555
Cl12 Cl27 3.923778 1_555
Cl13 La1 2.852321 1_555
Cl13 Cl8 3.650994 1_555
Cl13 Cl19 3.684389 1_555
Cl13 Cl31 3.756676 1_565
Cl13 Cl25 3.869507 1_555
Cl13 Cl9 3.897756 1_555
Cl13 Cl19 3.900078 1_455
Cl13 Cl27 3.908828 1_555
Cl13 Cl2 4.060999 1_455
Cl14 La2 2.826370 1_555
Cl14 Cl22 3.763565 1_655
Cl14 Cl4 3.806252 1_655
Cl14 Cl28 3.851189 1_555
Cl14 Cl29 3.923778 1_555
Cl15 La3 2.852321 1_555
Cl15 Cl5 3.650994 1_554
Cl15 Cl23 3.684389 1_555
Cl15 Cl33 3.756676 1_565
Cl15 Cl24 3.869507 1_554
Cl15 Cl23 3.900078 1_655
Cl15 Cl29 3.908828 1_555
Cl15 Cl6 4.060999 1_655
Cl16 La1 2.842759 1_555
Cl16 Cl19 3.483710 1_555
Cl16 Cl34 3.626243 1_565
Cl16 Cl28 3.962147 1_555
Cl16 Cl25 3.993641 1_555
Cl17 La0 2.983821 1_555
Cl17 Cl18 3.401033 1_555
Cl17 Cl7 3.667280 1_555
Cl17 Cl26 3.729289 1_655
Cl17 Cl24 3.813540 1_555
Cl17 Cl30 4.103360 1_555
Cl17 Cl26 4.159214 1_555
Cl18 La0 2.985557 1_555
Cl18 Cl9 3.460630 1_555
Cl18 Cl27 3.719517 1_655
Cl18 Cl19 3.749326 1_555
Cl18 Cl30 3.781943 1_555
Cl19 La1 3.018547 1_555
Cl19 Cl2 3.635105 1_555
Cl19 Cl27 3.928353 1_655
Cl19 Cl9 4.087488 1_555
Cl19 Cl31 4.123481 1_555
Cl20 La3 2.842759 1_555
Cl20 Cl23 3.483710 1_555
Cl20 Cl35 3.626243 1_565
Cl20 Cl26 3.962147 1_554
Cl20 Cl24 3.993641 1_554
Cl21 La2 2.983821 1_555
Cl21 Cl22 3.401033 1_555
Cl21 Cl3 3.667589 1_555
Cl21 Cl28 3.729289 1_455
Cl21 Cl25 3.813540 1_555
Cl21 Cl32 4.103360 1_555
Cl21 Cl28 4.159214 1_555
Cl22 La2 2.985557 1_555
Cl22 Cl4 3.682270 1_555
Cl22 Cl29 3.719517 1_455
Cl22 Cl23 3.749326 1_555
Cl22 Cl32 3.781943 1_555
Cl23 La3 3.018547 1_555
Cl23 Cl6 3.635105 1_555
Cl23 Cl29 3.928353 1_455
Cl23 Cl33 4.123481 1_555
Cl24 Cl5 3.815000 1_555
Cl24 Cl26 3.859679 1_655
Cl24 Cl5 3.947728 1_545
Cl24 Cl33 3.948056 1_556
Cl25 Cl8 3.815000 1_555
Cl25 Cl28 3.859679 1_455
Cl25 Cl8 3.947728 1_545
Cl25 Cl31 3.948056 1_555
Cl26 Cl30 3.941691 1_555
Cl26 Cl35 3.948398 1_556
Cl27 Cl30 3.834039 1_555
Cl27 Cl31 3.877441 1_555
Cl28 Cl32 3.941691 1_555
Cl28 Cl34 3.948398 1_555
Cl28 Cl3 3.970608 1_645
Cl29 Cl4 3.698241 1_645
Cl29 Cl32 3.834039 1_555
Cl29 Cl33 3.877441 1_555
Cl29 Cl6 4.016087 1_645
Cl30 La0 2.849809 1_545
Cl30 Cl7 3.567846 1_545
Cl30 Cl9 3.583856 1_545
Cl31 La1 2.870066 1_545
Cl31 Cl8 3.665907 1_545
Cl31 Cl9 3.897745 1_545
Cl31 Cl34 3.909583 1_555
Cl32 La2 2.849809 1_545
Cl32 Cl4 3.500862 1_545
Cl33 La3 2.870066 1_545
Cl33 Cl6 3.451395 1_545
Cl33 Cl5 3.665907 1_544
Cl33 Cl35 3.909583 1_555
Cl34 La1 2.886373 1_545
Cl34 Cl8 3.549609 1_545
Cl35 La3 2.886373 1_545
Cl35 Cl6 3.519959 1_545
Cl35 Cl5 3.549609 1_544
Cl35 Cl7 4.061819 1_544
