# generated using pymatgen
data_BaLaCl5
_symmetry_space_group_name_H-M   'P 1'
_cell_length_a   9.77587000
_cell_length_b   9.62124200
_cell_length_c   19.65246177
_cell_angle_alpha   85.65791118
_cell_angle_beta   90.00000000
_cell_angle_gamma   90.00000000
_symmetry_Int_Tables_number   1
_chemical_formula_structural   BaLaCl5
_chemical_formula_sum   'Ba8 La8 Cl40'
_cell_volume   1843.12676524
_cell_formula_units_Z   8
loop_
 _symmetry_equiv_pos_site_id
 _symmetry_equiv_pos_as_xyz
  1  'x, y, z'
loop_
 _atom_site_type_symbol
 _atom_site_label
 _atom_site_symmetry_multiplicity
 _atom_site_fract_x
 _atom_site_fract_y
 _atom_site_fract_z
 _atom_site_occupancy
  Ba  Ba0  1  0.15647700  0.00013600  0.63846400  1
  Ba  Ba1  1  0.34352300  0.00013600  0.13846400  1
  Ba  Ba2  1  0.15589500  0.68345800  0.91401200  1
  Ba  Ba3  1  0.34410500  0.68345800  0.41401200  1
  Ba  Ba4  1  0.65589500  0.31654200  0.58598800  1
  Ba  Ba5  1  0.84410500  0.31654200  0.08598800  1
  Ba  Ba6  1  0.65647700  0.99986400  0.86153600  1
  Ba  Ba7  1  0.84352300  0.99986400  0.36153600  1
  La  La0  1  0.67986600  0.82007600  0.62180100  1
  La  La1  1  0.82013400  0.82007600  0.12180100  1
  La  La2  1  0.62892300  0.50615500  0.83926000  1
  La  La3  1  0.12892300  0.49384500  0.66074000  1
  La  La4  1  0.87107700  0.50615500  0.33926000  1
  La  La5  1  0.37107700  0.49384500  0.16074000  1
  La  La6  1  0.17986600  0.17992400  0.87819900  1
  La  La7  1  0.32013400  0.17992400  0.37819900  1
  Cl  Cl0  1  0.47787100  0.02166500  0.60345100  1
  Cl  Cl1  1  0.82321100  0.97524100  0.71259100  1
  Cl  Cl2  1  0.83396800  0.96747000  0.52605600  1
  Cl  Cl3  1  0.02212900  0.02166500  0.10345100  1
  Cl  Cl4  1  0.67678900  0.97524100  0.21259100  1
  Cl  Cl5  1  0.66603200  0.96747000  0.02605600  1
  Cl  Cl6  1  0.49547000  0.71867200  0.90585200  1
  Cl  Cl7  1  0.53344300  0.68778900  0.72957500  1
  Cl  Cl8  1  0.16147700  0.70871400  0.74712300  1
  Cl  Cl9  1  0.85284600  0.66598300  0.85169800  1
  Cl  Cl10  1  0.20321400  0.70585100  0.56380500  1
  Cl  Cl11  1  0.00453000  0.71867200  0.40585200  1
  Cl  Cl12  1  0.57300900  0.63384300  0.53513100  1
  Cl  Cl13  1  0.96655700  0.68778900  0.22957500  1
  Cl  Cl14  1  0.33852300  0.70871400  0.24712300  1
  Cl  Cl15  1  0.85520500  0.58914100  0.64615900  1
  Cl  Cl16  1  0.64715400  0.66598300  0.35169800  1
  Cl  Cl17  1  0.29678600  0.70585100  0.06380500  1
  Cl  Cl18  1  0.92699100  0.63384300  0.03513100  1
  Cl  Cl19  1  0.64479500  0.58914100  0.14615900  1
  Cl  Cl20  1  0.35520500  0.41085900  0.85384100  1
  Cl  Cl21  1  0.07300900  0.36615700  0.96486900  1
  Cl  Cl22  1  0.70321400  0.29414900  0.93619500  1
  Cl  Cl23  1  0.35284600  0.33401700  0.64830200  1
  Cl  Cl24  1  0.14479500  0.41085900  0.35384100  1
  Cl  Cl25  1  0.66147700  0.29128600  0.75287700  1
  Cl  Cl26  1  0.03344300  0.31221100  0.77042500  1
  Cl  Cl27  1  0.42699100  0.36615700  0.46486900  1
  Cl  Cl28  1  0.99547000  0.28132800  0.59414800  1
  Cl  Cl29  1  0.79678600  0.29414900  0.43619500  1
  Cl  Cl30  1  0.14715400  0.33401700  0.14830200  1
  Cl  Cl31  1  0.83852300  0.29128600  0.25287700  1
  Cl  Cl32  1  0.46655700  0.31221100  0.27042500  1
  Cl  Cl33  1  0.50453000  0.28132800  0.09414800  1
  Cl  Cl34  1  0.33396800  0.03253000  0.97394400  1
  Cl  Cl35  1  0.32321100  0.02475900  0.78740900  1
  Cl  Cl36  1  0.97787100  0.97833500  0.89654900  1
  Cl  Cl37  1  0.16603200  0.03253000  0.47394400  1
  Cl  Cl38  1  0.17678900  0.02475900  0.28740900  1
  Cl  Cl39  1  0.52212900  0.97833500  0.39654900  1
loop_
_geom_bond_atom_site_label_1
_geom_bond_atom_site_label_2
_geom_bond_distance
_geom_bond_site_symmetry_2
Ba0 Cl28 3.193496 1_455
Ba0 Cl0 3.219684 1_555
Ba0 Cl37 3.225989 1_555
Ba0 Cl10 3.317730 1_545
Ba0 Cl35 3.374323 1_555
Ba0 Cl8 3.393715 1_545
Ba0 Cl1 3.569464 1_445
Ba0 Cl23 3.759758 1_555
Ba0 Cl2 3.876105 1_445
Ba1 Cl33 3.193496 1_555
Ba1 Cl3 3.219684 1_555
Ba1 Cl34 3.225989 1_554
Ba1 Cl17 3.317730 1_545
Ba1 Cl38 3.374323 1_555
Ba1 Cl14 3.393715 1_545
Ba1 Cl4 3.569464 1_545
Ba1 Cl30 3.759758 1_555
Ba1 Cl5 3.876105 1_545
Ba2 Cl9 3.214958 1_455
Ba2 Cl21 3.242412 1_555
Ba2 Cl8 3.270826 1_555
Ba2 Cl17 3.271921 1_556
Ba2 Cl18 3.275522 1_456
Ba2 Cl36 3.323878 1_455
Ba2 Cl6 3.339505 1_555
Ba2 Cl20 3.541623 1_555
Ba2 Cl34 4.036859 1_565
Ba3 Cl16 3.214958 1_555
Ba3 Cl27 3.242412 1_555
Ba3 Cl14 3.270826 1_555
Ba3 Cl10 3.271921 1_555
Ba3 Cl12 3.275522 1_555
Ba3 Cl39 3.323878 1_555
Ba3 Cl11 3.339505 1_555
Ba3 Cl24 3.541623 1_555
Ba3 Cl37 4.036859 1_565
Ba4 Cl23 3.214958 1_555
Ba4 Cl12 3.242412 1_555
Ba4 Cl25 3.270826 1_555
Ba4 Cl29 3.271921 1_555
Ba4 Cl27 3.275522 1_555
Ba4 Cl0 3.323878 1_555
Ba4 Cl28 3.339505 1_555
Ba4 Cl15 3.541623 1_555
Ba4 Cl2 4.036859 1_545
Ba5 Cl30 3.214958 1_655
Ba5 Cl18 3.242412 1_555
Ba5 Cl31 3.270826 1_555
Ba5 Cl22 3.271921 1_554
Ba5 Cl21 3.275522 1_654
Ba5 Cl3 3.323878 1_655
Ba5 Cl33 3.339505 1_555
Ba5 Cl19 3.541623 1_555
Ba5 Cl5 4.036859 1_545
Ba6 Cl6 3.193496 1_555
Ba6 Cl36 3.219684 1_555
Ba6 Cl5 3.225989 1_556
Ba6 Cl22 3.317730 1_565
Ba6 Cl1 3.374323 1_555
Ba6 Cl25 3.393715 1_565
Ba6 Cl35 3.569464 1_565
Ba6 Cl9 3.759758 1_555
Ba6 Cl34 3.876105 1_565
Ba7 Cl11 3.193496 1_655
Ba7 Cl39 3.219684 1_555
Ba7 Cl2 3.225989 1_555
Ba7 Cl29 3.317730 1_565
Ba7 Cl4 3.374323 1_555
Ba7 Cl31 3.393715 1_565
Ba7 Cl38 3.569464 1_665
Ba7 Cl16 3.759758 1_555
Ba7 Cl37 3.876105 1_665
Cl0 La0 2.772235 1_545
Cl0 Cl23 3.420991 1_555
Cl0 Cl35 3.920842 1_555
Cl1 La0 2.789134 1_555
Cl1 Cl25 3.568940 1_565
Cl1 Cl2 3.673795 1_555
Cl1 Cl9 3.896041 1_555
Cl1 Cl36 3.920842 1_555
Cl1 Cl28 3.986055 1_565
Cl2 La0 2.723416 1_555
Cl2 Cl37 3.446955 1_665
Cl2 Cl29 3.505591 1_565
Cl2 Cl28 3.743513 1_565
Cl3 La1 2.772235 1_445
Cl3 Cl30 3.420991 1_555
Cl3 Cl38 3.920842 1_555
Cl4 La1 2.789134 1_555
Cl4 Cl5 3.673795 1_555
Cl5 La1 2.723416 1_555
Cl5 Cl6 3.866129 1_554
Cl6 La2 2.828535 1_555
Cl6 Cl7 3.518973 1_555
Cl6 Cl9 3.698242 1_555
Cl7 La0 2.783290 1_555
Cl7 La2 2.828652 1_555
Cl7 Cl8 3.659589 1_555
Cl8 La3 2.790777 1_555
Cl8 Cl9 3.656209 1_455
Cl9 La2 2.696892 1_555
Cl10 La3 2.780064 1_555
Cl10 Cl37 3.505591 1_565
Cl10 Cl8 3.627857 1_555
Cl10 Cl11 3.655905 1_555
Cl10 Cl12 3.731670 1_555
Cl10 Cl15 3.896067 1_455
Cl11 La4 2.828535 1_455
Cl11 Cl24 3.486275 1_555
Cl11 Cl13 3.518973 1_455
Cl11 Cl16 3.698242 1_455
Cl11 Cl37 3.743513 1_565
Cl11 Cl2 3.866129 1_455
Cl11 Cl38 3.986055 1_565
Cl12 La0 2.768581 1_555
Cl12 Cl27 3.334043 1_555
Cl12 Cl15 3.523403 1_555
Cl12 Cl16 3.667095 1_555
Cl13 La1 2.783290 1_555
Cl13 La4 2.828652 1_555
Cl13 Cl14 3.659589 1_655
Cl13 Cl19 3.703784 1_555
Cl14 La5 2.790777 1_555
Cl14 Cl38 3.568940 1_565
Cl14 Cl17 3.627857 1_555
Cl14 Cl16 3.656209 1_555
Cl14 Cl19 3.817154 1_555
Cl14 Cl24 3.909937 1_555
Cl15 La0 2.818326 1_555
Cl15 La3 2.836027 1_655
Cl15 Cl28 3.486275 1_555
Cl15 Cl7 3.703784 1_555
Cl15 Cl8 3.817154 1_655
Cl15 Cl25 3.909937 1_555
Cl16 La4 2.696892 1_555
Cl16 Cl39 3.420991 1_555
Cl16 Cl4 3.896041 1_555
Cl17 La5 2.780064 1_555
Cl17 Cl34 3.505591 1_564
Cl17 Cl6 3.655905 1_554
Cl17 Cl18 3.731670 1_455
Cl17 Cl19 3.896067 1_555
Cl18 La1 2.768581 1_555
Cl18 Cl21 3.334043 1_654
Cl18 Cl19 3.523403 1_555
Cl18 Cl9 3.667095 1_554
Cl19 La1 2.818326 1_555
Cl19 La5 2.836027 1_555
Cl19 Cl33 3.486275 1_555
Cl19 Cl31 3.909937 1_555
Cl20 La6 2.818326 1_555
Cl20 La2 2.836027 1_555
Cl20 Cl6 3.486275 1_555
Cl20 Cl21 3.523403 1_555
Cl20 Cl26 3.703784 1_555
Cl20 Cl25 3.817154 1_555
Cl20 Cl22 3.896067 1_555
Cl20 Cl8 3.909937 1_555
Cl21 La6 2.768581 1_555
Cl21 Cl30 3.667095 1_556
Cl21 Cl22 3.731670 1_455
Cl22 La2 2.780064 1_555
Cl22 Cl5 3.505591 1_546
Cl22 Cl25 3.627857 1_555
Cl22 Cl33 3.655905 1_556
Cl23 La3 2.696892 1_555
Cl23 Cl25 3.656209 1_555
Cl23 Cl27 3.667095 1_555
Cl23 Cl28 3.698242 1_455
Cl23 Cl35 3.896041 1_555
Cl24 La7 2.818326 1_555
Cl24 La4 2.836027 1_455
Cl24 Cl27 3.523403 1_555
Cl24 Cl32 3.703784 1_555
Cl24 Cl31 3.817154 1_455
Cl24 Cl29 3.896067 1_455
Cl25 La2 2.790777 1_555
Cl25 Cl26 3.659589 1_655
Cl26 La6 2.783290 1_555
Cl26 La3 2.828652 1_555
Cl26 Cl28 3.518973 1_455
Cl27 La7 2.768581 1_555
Cl27 Cl29 3.731670 1_555
Cl28 La3 2.828535 1_655
Cl28 Cl29 3.655905 1_555
Cl28 Cl37 3.866129 1_655
Cl29 La4 2.780064 1_555
Cl29 Cl31 3.627857 1_555
Cl30 La5 2.696892 1_555
Cl30 Cl31 3.656209 1_455
Cl30 Cl33 3.698242 1_555
Cl30 Cl38 3.896041 1_555
Cl31 La4 2.790777 1_555
Cl31 Cl4 3.568940 1_545
Cl31 Cl32 3.659589 1_555
Cl32 La7 2.783290 1_555
Cl32 La5 2.828652 1_555
Cl32 Cl33 3.518973 1_555
Cl33 La5 2.828535 1_555
Cl33 Cl5 3.743513 1_545
Cl33 Cl34 3.866129 1_554
Cl33 Cl4 3.986055 1_545
Cl34 La6 2.723416 1_555
Cl34 Cl5 3.446955 1_546
Cl34 Cl35 3.673795 1_555
Cl34 Cl6 3.743513 1_545
Cl35 La6 2.789134 1_555
Cl35 Cl8 3.568940 1_545
Cl35 Cl6 3.986055 1_545
Cl36 La6 2.772235 1_665
Cl36 Cl9 3.420991 1_555
Cl37 La7 2.723416 1_555
Cl37 Cl38 3.673795 1_555
Cl38 La7 2.789134 1_555
Cl39 La7 2.772235 1_565
Cl39 Cl4 3.920842 1_555
