# generated using pymatgen
data_Li4Cr2Ni3Sb3O16
_symmetry_space_group_name_H-M   'P 1'
_cell_length_a   6.05092218
_cell_length_b   6.05092218
_cell_length_c   9.62392669
_cell_angle_alpha   88.67601782
_cell_angle_beta   88.67601782
_cell_angle_gamma   59.96367937
_symmetry_Int_Tables_number   1
_chemical_formula_structural   Li4Cr2Ni3Sb3O16
_chemical_formula_sum   'Li4 Cr2 Ni3 Sb3 O16'
_cell_volume   304.93862410
_cell_formula_units_Z   1
loop_
 _symmetry_equiv_pos_site_id
 _symmetry_equiv_pos_as_xyz
  1  'x, y, z'
loop_
 _atom_site_type_symbol
 _atom_site_label
 _atom_site_symmetry_multiplicity
 _atom_site_fract_x
 _atom_site_fract_y
 _atom_site_fract_z
 _atom_site_occupancy
  Li  Li0  1  0.66618500  0.66618500  0.12030800  1
  Li  Li1  1  0.98055300  0.98055300  0.01600700  1
  Li  Li2  1  0.98870500  0.98870500  0.49378200  1
  Li  Li3  1  0.32829800  0.32829800  0.59586400  1
  Cr  Cr0  1  0.67462700  0.67462700  0.50487200  1
  Cr  Cr1  1  0.34598900  0.34598900  0.02533000  1
  Ni  Ni0  1  0.83170600  0.83170600  0.78477400  1
  Ni  Ni1  1  0.17232600  0.66070300  0.28763600  1
  Ni  Ni2  1  0.66070300  0.17232600  0.28763600  1
  Sb  Sb0  1  0.33788400  0.83235600  0.78526200  1
  Sb  Sb1  1  0.83235600  0.33788400  0.78526200  1
  Sb  Sb2  1  0.17165200  0.17165200  0.28626300  1
  O  O0  1  0.33431600  0.84655200  0.40340600  1
  O  O1  1  0.51589600  0.51589600  0.66095300  1
  O  O2  1  0.66258600  0.66258600  0.89854400  1
  O  O3  1  0.00410100  0.00410100  0.68224800  1
  O  O4  1  0.00184900  0.00184900  0.19815800  1
  O  O5  1  0.84655200  0.33431600  0.40340600  1
  O  O6  1  0.51037100  0.96140300  0.65851400  1
  O  O7  1  0.96140300  0.51037100  0.65851400  1
  O  O8  1  0.16026100  0.16026100  0.89682400  1
  O  O9  1  0.83328700  0.83328700  0.40142000  1
  O  O10  1  0.03975500  0.47341000  0.15220800  1
  O  O11  1  0.47341000  0.03975500  0.15220800  1
  O  O12  1  0.33226000  0.33226000  0.39383600  1
  O  O13  1  0.17312600  0.67957900  0.90049700  1
  O  O14  1  0.48116900  0.48116900  0.15788400  1
  O  O15  1  0.67957900  0.17312600  0.90049700  1
loop_
_geom_bond_atom_site_label_1
_geom_bond_atom_site_label_2
_geom_bond_distance
_geom_bond_site_symmetry_2
Li0 O14 1.963337 1_555
Li0 O10 1.985042 1_655
Li0 O11 1.985042 1_565
Li0 O2 2.135580 1_554
Li1 O4 1.773062 1_665
Li1 O13 1.954354 1_654
Li1 O15 1.954354 1_564
Li1 O8 2.179211 1_664
Li2 O3 1.825232 1_665
Li2 O9 1.876574 1_555
Li2 O5 2.004867 1_565
Li2 O0 2.004867 1_655
Li3 O12 1.943638 1_555
Li3 O6 2.006548 1_545
Li3 O7 2.006548 1_455
Li3 O1 2.079702 1_555
Cr0 O9 1.915449 1_555
Cr0 O0 2.043896 1_555
Cr0 O5 2.043896 1_555
Cr0 O6 2.123541 1_555
Cr0 O7 2.123541 1_555
Cr0 O1 2.211677 1_555
Cr1 O14 1.931775 1_555
Cr1 O11 2.006926 1_555
Cr1 O10 2.006926 1_555
Cr1 O13 2.108127 1_554
Cr1 O15 2.108127 1_554
Cr1 O8 2.334160 1_554
Ni0 O3 2.035713 1_665
Ni0 O2 2.058654 1_555
Ni0 O7 2.100121 1_555
Ni0 O6 2.100121 1_555
Ni0 O13 2.123871 1_655
Ni0 O15 2.123871 1_565
Ni1 O4 1.973310 1_565
Ni1 O12 1.989291 1_555
Ni1 O14 2.038207 1_555
Ni1 O9 2.074281 1_455
Ni1 O10 2.157137 1_555
Ni1 O0 2.163010 1_555
Ni2 O4 1.973310 1_655
Ni2 O12 1.989291 1_555
Ni2 O14 2.038207 1_555
Ni2 O9 2.074281 1_545
Ni2 O11 2.157137 1_555
Ni2 O5 2.163010 1_555
O0 Sb2 2.029758 1_565
O1 Sb0 2.059045 1_555
O1 Sb1 2.059045 1_555
O2 Sb0 2.032431 1_555
O2 Sb1 2.032431 1_555
O3 Sb0 2.021318 1_545
O3 Sb1 2.021318 1_455
O4 Sb2 1.991906 1_555
O5 Sb2 2.029758 1_655
O6 Sb0 1.974848 1_555
O7 Sb1 1.974848 1_555
O8 Sb1 2.038369 1_455
O8 Sb0 2.038369 1_545
O10 Sb2 2.028605 1_555
O11 Sb2 2.028605 1_555
O12 Sb2 1.999790 1_555
O13 Sb0 1.975485 1_555
O15 Sb1 1.975485 1_555
