# generated using pymatgen
data_NiTe(PO4)2
_symmetry_space_group_name_H-M   'P 1'
_cell_length_a   4.79678179
_cell_length_b   9.86528223
_cell_length_c   13.07383814
_cell_angle_alpha   90.08408307
_cell_angle_beta   89.82928200
_cell_angle_gamma   95.89078653
_symmetry_Int_Tables_number   1
_chemical_formula_structural   NiTe(PO4)2
_chemical_formula_sum   'Ni4 Te4 P8 O32'
_cell_volume   615.40485157
_cell_formula_units_Z   4
loop_
 _symmetry_equiv_pos_site_id
 _symmetry_equiv_pos_as_xyz
  1  'x, y, z'
loop_
 _atom_site_type_symbol
 _atom_site_label
 _atom_site_symmetry_multiplicity
 _atom_site_fract_x
 _atom_site_fract_y
 _atom_site_fract_z
 _atom_site_occupancy
  Ni  Ni0  1  0.93052600  0.26621500  0.62543700  1
  Ni  Ni1  1  0.06982200  0.73372800  0.87364900  1
  Ni  Ni2  1  0.93084700  0.26607400  0.12491800  1
  Ni  Ni3  1  0.06948900  0.73388900  0.37431800  1
  Te  Te0  1  0.42689800  0.20148500  0.37528400  1
  Te  Te1  1  0.42723400  0.20122700  0.87532300  1
  Te  Te2  1  0.57314100  0.79850900  0.12441900  1
  Te  Te3  1  0.57265400  0.79881600  0.62436300  1
  P  P0  1  0.34394500  0.09036400  0.12484100  1
  P  P1  1  0.34340600  0.09047800  0.62479900  1
  P  P2  1  0.65614200  0.90964400  0.37521600  1
  P  P3  1  0.65654100  0.90951800  0.87523800  1
  P  P4  1  0.89291900  0.40237500  0.37503400  1
  P  P5  1  0.89349600  0.40219300  0.87490900  1
  P  P6  1  0.10707100  0.59762300  0.12521600  1
  P  P7  1  0.10637700  0.59782000  0.62527700  1
  O  O0  1  0.76093000  0.06421000  0.37556500  1
  O  O1  1  0.76126300  0.06411400  0.87577700  1
  O  O2  1  0.23912400  0.93579700  0.12433700  1
  O  O3  1  0.23862900  0.93588400  0.62412100  1
  O  O4  1  0.66415200  0.10112400  0.12484600  1
  O  O5  1  0.66363100  0.10123800  0.62487300  1
  O  O6  1  0.33592200  0.89890500  0.37511100  1
  O  O7  1  0.33630100  0.89879900  0.87502600  1
  O  O8  1  0.20465200  0.37527200  0.37525500  1
  O  O9  1  0.20525100  0.37518700  0.87524500  1
  O  O10  1  0.79532900  0.62469600  0.12457700  1
  O  O11  1  0.79464700  0.62482300  0.62454200  1
  O  O12  1  0.13633800  0.44786300  0.12490500  1
  O  O13  1  0.13596900  0.44805500  0.62501900  1
  O  O14  1  0.86370600  0.55215000  0.37531600  1
  O  O15  1  0.86407200  0.55197700  0.87514500  1
  O  O16  1  0.21986500  0.16634400  0.03267000  1
  O  O17  1  0.21918600  0.16654400  0.53276800  1
  O  O18  1  0.21782100  0.16625500  0.21670100  1
  O  O19  1  0.21732600  0.16606900  0.71682800  1
  O  O20  1  0.78266300  0.83366400  0.28357200  1
  O  O21  1  0.78297600  0.83382500  0.78340700  1
  O  O22  1  0.77971300  0.83376700  0.46761200  1
  O  O23  1  0.78025300  0.83350600  0.96747000  1
  O  O24  1  0.72270900  0.32299100  0.46652600  1
  O  O25  1  0.72333200  0.32285300  0.96643200  1
  O  O26  1  0.72441000  0.32304500  0.28344900  1
  O  O27  1  0.72505200  0.32277700  0.78335600  1
  O  O28  1  0.27791800  0.67696600  0.03377000  1
  O  O29  1  0.27719000  0.67712100  0.53380000  1
  O  O30  1  0.27494500  0.67697700  0.21685100  1
  O  O31  1  0.27421800  0.67724400  0.71688800  1
loop_
_geom_bond_atom_site_label_1
_geom_bond_atom_site_label_2
_geom_bond_distance
_geom_bond_site_symmetry_2
Ni0 O13 1.956114 1_655
Ni0 O5 1.964761 1_555
Ni0 O19 2.142090 1_655
Ni0 O17 2.148923 1_655
Ni0 O27 2.375455 1_555
Ni0 O24 2.398777 1_555
Ni1 O15 1.956046 1_455
Ni1 O7 1.964414 1_555
Ni1 O21 2.133605 1_455
Ni1 O23 2.160958 1_455
Ni1 O31 2.359854 1_555
Ni1 O28 2.413067 1_556
Ni2 O12 1.955766 1_655
Ni2 O4 1.963996 1_555
Ni2 O18 2.143844 1_655
Ni2 O16 2.147330 1_655
Ni2 O26 2.385528 1_555
Ni2 O25 2.393324 1_554
Ni3 O14 1.955956 1_455
Ni3 O6 1.963815 1_555
Ni3 O20 2.135528 1_455
Ni3 O22 2.158272 1_455
Ni3 O30 2.371250 1_555
Ni3 O29 2.404990 1_555
O0 P2 1.555786 1_545
O0 Te0 2.201539 1_555
O1 P3 1.556004 1_545
O1 Te1 2.200438 1_555
O2 P0 1.555836 1_565
O2 Te2 2.201560 1_555
O3 P1 1.556052 1_565
O3 Te3 2.200102 1_555
O4 P0 1.528720 1_555
O5 P1 1.528809 1_555
O6 P2 1.528793 1_555
O7 P3 1.528902 1_555
O8 P4 1.545821 1_455
O8 Te0 2.109747 1_555
O9 P5 1.545673 1_455
O9 Te1 2.110483 1_555
O10 P6 1.545820 1_655
O10 Te2 2.109811 1_555
O11 P7 1.545587 1_655
O11 Te3 2.110797 1_555
O12 P6 1.498353 1_555
O13 P7 1.498706 1_555
O14 P4 1.498450 1_555
O15 P5 1.498735 1_555
O16 P0 1.570568 1_555
O16 Te1 2.293308 1_554
O17 P1 1.569890 1_555
O17 Te0 2.295658 1_555
O18 P0 1.566799 1_555
O18 Te0 2.315999 1_555
O19 P1 1.566874 1_555
O19 Te1 2.316573 1_555
O20 P2 1.565921 1_555
O20 Te2 2.323499 1_555
O21 P3 1.566148 1_555
O21 Te3 2.323687 1_555
O22 P2 1.571260 1_555
O22 Te3 2.285782 1_555
O23 P3 1.570587 1_555
O23 Te2 2.288255 1_556
O24 P4 1.605112 1_555
O24 Te0 2.128376 1_555
O25 P5 1.605124 1_555
O25 Te1 2.128826 1_555
O26 P4 1.603961 1_555
O26 Te0 2.135182 1_555
O27 P5 1.603876 1_555
O27 Te1 2.136996 1_555
O28 P6 1.605885 1_555
O28 Te2 2.122488 1_555
O29 P7 1.605931 1_555
O29 Te3 2.123309 1_555
O30 P6 1.603166 1_555
O30 Te2 2.141431 1_555
O31 P7 1.603161 1_555
O31 Te3 2.143011 1_555
