# generated using pymatgen
data_Ba6Bi6O17
_symmetry_space_group_name_H-M   'P 1'
_cell_length_a   10.92870754
_cell_length_b   10.92870754
_cell_length_c   10.92870754
_cell_angle_alpha   146.28746451
_cell_angle_beta   133.11498584
_cell_angle_gamma   58.98266189
_symmetry_Int_Tables_number   1
_chemical_formula_structural   Ba6Bi6O17
_chemical_formula_sum   'Ba6 Bi6 O17'
_cell_volume   524.26658047
_cell_formula_units_Z   1
loop_
 _symmetry_equiv_pos_site_id
 _symmetry_equiv_pos_as_xyz
  1  'x, y, z'
loop_
 _atom_site_type_symbol
 _atom_site_label
 _atom_site_symmetry_multiplicity
 _atom_site_fract_x
 _atom_site_fract_y
 _atom_site_fract_z
 _atom_site_occupancy
  Ba  Ba0  1  0.50000000  0.00000000  0.50000000  1
  Ba  Ba1  1  0.17760700  0.67760700  0.50000000  1
  Ba  Ba2  1  0.33191800  0.33191800  0.00000000  1
  Ba  Ba3  1  0.00000000  0.00000000  0.00000000  1
  Ba  Ba4  1  0.66808200  0.66808200  0.00000000  1
  Ba  Ba5  1  0.82239300  0.32239300  0.50000000  1
  Bi  Bi0  1  0.24818800  0.50000000  0.74818800  1
  Bi  Bi1  1  0.08279600  0.83427900  0.24851700  1
  Bi  Bi2  1  0.75181200  0.50000000  0.25181200  1
  Bi  Bi3  1  0.58576200  0.83427900  0.75148300  1
  Bi  Bi4  1  0.41423800  0.16572100  0.24851700  1
  Bi  Bi5  1  0.91720400  0.16572100  0.75148300  1
  O  O0  1  0.16094500  0.66954300  0.99645300  1
  O  O1  1  0.16094500  0.16449100  0.49140200  1
  O  O2  1  0.33245300  0.83245300  0.50000000  1
  O  O3  1  0.50000000  0.50000000  0.00000000  1
  O  O4  1  0.16756100  0.16756100  0.00000000  1
  O  O5  1  0.67309000  0.66954300  0.50859800  1
  O  O6  1  0.67309000  0.16449100  0.00354700  1
  O  O7  1  0.50000000  0.50000000  0.50000000  1
  O  O8  1  0.50000000  0.00000000  0.00000000  1
  O  O9  1  0.32691000  0.83550900  0.99645300  1
  O  O10  1  0.32691000  0.33045700  0.49140200  1
  O  O11  1  0.83243900  0.83243900  0.00000000  1
  O  O12  1  0.66754700  0.16754700  0.50000000  1
  O  O13  1  0.00000000  0.50000000  0.00000000  1
  O  O14  1  0.83905500  0.83550900  0.50859800  1
  O  O15  1  0.83905500  0.33045700  0.00354700  1
  O  O16  1  0.00000000  0.00000000  0.50000000  1
loop_
_geom_bond_atom_site_label_1
_geom_bond_atom_site_label_2
_geom_bond_distance
_geom_bond_site_symmetry_2
Ba0 O10 3.148146 1_555
Ba0 O5 3.148146 1_545
Ba0 O0 3.148146 1_544
Ba0 O15 3.148146 1_556
Ba0 O1 3.148146 1_555
Ba0 O14 3.148146 1_545
Ba0 O6 3.148152 1_556
Ba0 O9 3.148152 1_544
Ba0 O3 3.169017 1_556
Ba0 O3 3.169017 1_545
Ba0 O12 3.187641 1_555
Ba0 O2 3.187641 1_545
Ba1 O2 2.946000 1_555
Ba1 O16 3.022146 1_565
Ba1 O8 3.022146 1_566
Ba1 O13 3.022146 1_555
Ba1 O7 3.022146 1_555
Ba1 O4 3.174775 1_566
Ba1 O4 3.174775 1_555
Ba1 O9 3.209597 1_555
Ba1 O14 3.209602 1_455
Ba1 O10 3.209603 1_555
Ba1 O15 3.209603 1_455
Ba2 O8 3.108921 1_555
Ba2 O16 3.108921 1_554
Ba2 O13 3.108921 1_555
Ba2 O7 3.108921 1_555
Ba2 O4 3.126950 1_555
Ba2 O2 3.169033 1_544
Ba2 O2 3.169033 1_555
Ba2 O1 3.184498 1_554
Ba2 O6 3.184504 1_555
Ba2 O5 3.184505 1_555
Ba2 O0 3.184505 1_554
Ba2 O3 3.197820 1_555
Ba3 O0 3.074357 1_544
Ba3 O5 3.074357 1_444
Ba3 O15 3.074357 1_455
Ba3 O10 3.074357 1_555
Ba3 O6 3.074357 1_455
Ba3 O9 3.074357 1_544
Ba3 O1 3.074363 1_555
Ba3 O14 3.074363 1_444
Ba3 O4 3.187907 1_555
Ba3 O11 3.187907 1_445
Ba4 O16 3.108921 1_665
Ba4 O8 3.108921 1_565
Ba4 O7 3.108921 1_554
Ba4 O13 3.108921 1_655
Ba4 O11 3.126950 1_555
Ba4 O12 3.169033 1_565
Ba4 O12 3.169033 1_554
Ba4 O14 3.184498 1_555
Ba4 O9 3.184504 1_554
Ba4 O10 3.184505 1_554
Ba4 O15 3.184505 1_555
Ba4 O3 3.197820 1_555
Ba5 O12 2.946000 1_555
Ba5 O7 3.022146 1_555
Ba5 O8 3.022146 1_555
Ba5 O13 3.022146 1_656
Ba5 O16 3.022146 1_655
Ba5 O11 3.174775 1_556
Ba5 O11 3.174775 1_545
Ba5 O6 3.209597 1_555
Ba5 O1 3.209602 1_655
Ba5 O5 3.209603 1_555
Ba5 O0 3.209603 1_655
Bi0 O3 2.189633 1_556
Bi0 O0 2.248453 1_555
Bi0 O10 2.248453 1_555
Bi0 O1 2.248462 1_555
Bi0 O9 2.248462 1_555
Bi1 O11 2.161265 1_455
Bi1 O2 2.187048 1_555
Bi1 O1 2.222529 1_565
Bi1 O0 2.222538 1_554
Bi1 O16 2.254295 1_565
Bi1 O13 2.254295 1_555
Bi2 O3 2.189633 1_555
Bi2 O5 2.248453 1_555
Bi2 O15 2.248453 1_555
Bi2 O14 2.248462 1_555
Bi2 O6 2.248462 1_555
Bi3 O11 2.161265 1_556
Bi3 O2 2.187048 1_555
Bi3 O6 2.222529 1_566
Bi3 O5 2.222538 1_555
Bi3 O8 2.254295 1_566
Bi3 O7 2.254295 1_555
Bi4 O4 2.161265 1_555
Bi4 O12 2.187048 1_555
Bi4 O9 2.222529 1_544
Bi4 O10 2.222538 1_555
Bi4 O8 2.254295 1_555
Bi4 O7 2.254295 1_555
Bi5 O4 2.161265 1_656
Bi5 O12 2.187048 1_555
Bi5 O14 2.222529 1_545
Bi5 O15 2.222538 1_556
Bi5 O16 2.254295 1_655
Bi5 O13 2.254295 1_656
