# generated using pymatgen
data_LiVF4
_symmetry_space_group_name_H-M   'P 1'
_cell_length_a   4.61411700
_cell_length_b   5.18541000
_cell_length_c   11.87664800
_cell_angle_alpha   90.00000000
_cell_angle_beta   90.00000000
_cell_angle_gamma   90.00000000
_symmetry_Int_Tables_number   1
_chemical_formula_structural   LiVF4
_chemical_formula_sum   'Li4 V4 F16'
_cell_volume   284.16173034
_cell_formula_units_Z   4
loop_
 _symmetry_equiv_pos_site_id
 _symmetry_equiv_pos_as_xyz
  1  'x, y, z'
loop_
 _atom_site_type_symbol
 _atom_site_label
 _atom_site_symmetry_multiplicity
 _atom_site_fract_x
 _atom_site_fract_y
 _atom_site_fract_z
 _atom_site_occupancy
  Li  Li0  1  0.00000000  0.75000000  0.32097400  1
  Li  Li1  1  0.00000000  0.25000000  0.67902600  1
  Li  Li2  1  0.50000000  0.25000000  0.17902600  1
  Li  Li3  1  0.50000000  0.75000000  0.82097400  1
  V  V0  1  0.00000000  0.75000000  0.07111300  1
  V  V1  1  0.00000000  0.25000000  0.92888700  1
  V  V2  1  0.50000000  0.25000000  0.42888700  1
  V  V3  1  0.50000000  0.75000000  0.57111300  1
  F  F0  1  0.22872300  0.08681600  0.05384800  1
  F  F1  1  0.22872300  0.58681600  0.94615200  1
  F  F2  1  0.23135100  0.08996700  0.81658500  1
  F  F3  1  0.23135100  0.58996700  0.18341500  1
  F  F4  1  0.26864900  0.08996700  0.31658500  1
  F  F5  1  0.26864900  0.58996700  0.68341500  1
  F  F6  1  0.27127700  0.08681600  0.55384800  1
  F  F7  1  0.27127700  0.58681600  0.44615200  1
  F  F8  1  0.72872300  0.91318400  0.44615200  1
  F  F9  1  0.72872300  0.41318400  0.55384800  1
  F  F10  1  0.73135100  0.91003300  0.68341500  1
  F  F11  1  0.73135100  0.41003300  0.31658500  1
  F  F12  1  0.76864900  0.91003300  0.18341500  1
  F  F13  1  0.76864900  0.41003300  0.81658500  1
  F  F14  1  0.77127700  0.91318400  0.94615200  1
  F  F15  1  0.77127700  0.41318400  0.05384800  1
loop_
_geom_bond_atom_site_label_1
_geom_bond_atom_site_label_2
_geom_bond_distance
_geom_bond_site_symmetry_2
F0 V1 2.008082 1_554
F0 V0 2.050898 1_545
F0 Li2 2.119679 1_555
F0 F15 2.705393 1_455
F0 F12 2.777540 1_445
F1 V0 2.008082 1_556
F1 V1 2.050898 1_555
F1 Li3 2.119679 1_555
F1 F14 2.705393 1_455
F1 F13 2.777540 1_455
F2 V1 1.899234 1_555
F2 Li1 2.120672 1_555
F2 Li3 2.155684 1_545
F3 V0 1.899234 1_555
F3 Li0 2.120672 1_555
F3 Li2 2.155684 1_555
F4 V2 1.899234 1_555
F4 Li2 2.120672 1_555
F4 Li0 2.155684 1_545
F4 F8 2.777540 1_545
F5 V3 1.899234 1_555
F5 Li3 2.120672 1_555
F5 Li1 2.155684 1_555
F5 F9 2.777540 1_555
F6 V2 2.008082 1_555
F6 V3 2.050898 1_545
F6 Li1 2.119679 1_555
F6 F9 2.705393 1_555
F7 V3 2.008082 1_555
F7 V2 2.050898 1_555
F7 Li0 2.119679 1_555
F7 F8 2.705393 1_555
F8 V3 2.008082 1_555
F8 V2 2.050898 1_565
F8 Li0 2.119679 1_655
F9 V2 2.008082 1_555
F9 V3 2.050898 1_555
F9 Li1 2.119679 1_655
F10 V3 1.899234 1_555
F10 Li3 2.120672 1_555
F10 Li1 2.155684 1_665
F10 F6 2.777540 1_565
F11 V2 1.899234 1_555
F11 Li2 2.120672 1_555
F11 Li0 2.155684 1_655
F11 F7 2.777540 1_555
F12 V0 1.899234 1_655
F12 Li0 2.120672 1_655
F12 Li2 2.155684 1_565
F13 V1 1.899234 1_655
F13 Li1 2.120672 1_655
F13 Li3 2.155684 1_555
F14 V0 2.008082 1_656
F14 V1 2.050898 1_665
F14 Li3 2.119679 1_555
F14 F2 2.777540 1_665
F15 V1 2.008082 1_654
F15 V0 2.050898 1_655
F15 Li2 2.119679 1_555
F15 F3 2.777540 1_655
