# generated using pymatgen
data_LiSn3Sb(PO4)6
_symmetry_space_group_name_H-M   'P 1'
_cell_length_a   8.75348900
_cell_length_b   8.75600170
_cell_length_c   8.78419660
_cell_angle_alpha   90.10483981
_cell_angle_beta   119.78342755
_cell_angle_gamma   119.87730109
_symmetry_Int_Tables_number   1
_chemical_formula_structural   LiSn3Sb(PO4)6
_chemical_formula_sum   'Li1 Sn3 Sb1 P6 O24'
_cell_volume   478.07351782
_cell_formula_units_Z   1
loop_
 _symmetry_equiv_pos_site_id
 _symmetry_equiv_pos_as_xyz
  1  'x, y, z'
loop_
 _atom_site_type_symbol
 _atom_site_label
 _atom_site_symmetry_multiplicity
 _atom_site_fract_x
 _atom_site_fract_y
 _atom_site_fract_z
 _atom_site_occupancy
  Li  Li0  1  0.99079500  0.49883700  0.50424200  1
  Sn  Sn0  1  0.71863300  0.85734600  0.58372200  1
  Sn  Sn1  1  0.28976100  0.64401100  0.92871000  1
  Sn  Sn2  1  0.71499000  0.35407200  0.07484400  1
  Sb  Sb0  1  0.28147500  0.13932400  0.42051000  1
  P  P0  1  0.79437400  0.25534400  0.74780700  1
  P  P1  1  0.20918100  0.95528900  0.74829300  1
  P  P2  1  0.50042000  0.45554100  0.25370700  1
  P  P3  1  0.49515900  0.53580400  0.74895100  1
  P  P4  1  0.79104300  0.03822500  0.24788500  1
  P  P5  1  0.21272400  0.74983700  0.26024600  1
  O  O0  1  0.61269800  0.60943700  0.42828700  1
  O  O1  1  0.20676200  0.70996800  0.08642000  1
  O  O2  1  0.78882200  0.98347800  0.41129200  1
  O  O3  1  0.82879800  0.10094600  0.74733300  1
  O  O4  1  0.36813400  0.48134000  0.07216700  1
  O  O5  1  0.57416100  0.19469400  0.56919900  1
  O  O6  1  0.02181700  0.92576100  0.74765100  1
  O  O7  1  0.96378500  0.42933200  0.73647200  1
  O  O8  1  0.59254700  0.88501400  0.05922800  1
  O  O9  1  0.19655100  0.77180800  0.73354700  1
  O  O10  1  0.33520600  0.26214600  0.24772500  1
  O  O11  1  0.31010000  0.53486800  0.73395700  1
  O  O12  1  0.19323800  0.00123800  0.57186700  1
  O  O13  1  0.67895800  0.44633000  0.26570600  1
  O  O14  1  0.81222400  0.22560000  0.26277700  1
  O  O15  1  0.65874600  0.72349300  0.75543400  1
  O  O16  1  0.41600700  0.11168800  0.92934700  1
  O  O17  1  0.37914300  0.37812500  0.56947500  1
  O  O18  1  0.02960000  0.58122200  0.26120000  1
  O  O19  1  0.98614300  0.07092400  0.25388400  1
  O  O20  1  0.42042900  0.80519100  0.44229200  1
  O  O21  1  0.61970900  0.50288100  0.92733200  1
  O  O22  1  0.17972600  0.91016200  0.25342600  1
  O  O23  1  0.81289300  0.30163000  0.92692300  1
loop_
_geom_bond_atom_site_label_1
_geom_bond_atom_site_label_2
_geom_bond_distance
_geom_bond_site_symmetry_2
Li0 O7 2.219916 1_555
Li0 O9 2.259058 1_655
Li0 O13 2.262072 1_555
Li0 O11 2.345128 1_655
Li0 O14 2.372346 1_555
Li0 O18 2.382356 1_655
O0 P2 1.519590 1_555
O0 Sn0 2.040087 1_555
O1 P5 1.535191 1_555
O1 Sn1 2.048315 1_554
O2 P4 1.520360 1_565
O2 Sn0 2.036173 1_555
O3 P0 1.524979 1_555
O3 Sn0 2.026740 1_545
O4 P2 1.537000 1_555
O4 Sn1 2.051500 1_554
O5 P0 1.559455 1_555
O5 Sb0 1.985135 1_555
O6 P1 1.524831 1_555
O6 Sn0 2.022886 1_455
O7 P0 1.557673 1_555
O7 Sn1 2.093975 1_655
O8 P4 1.540785 1_565
O8 Sn1 2.047534 1_554
O9 P1 1.555021 1_555
O9 Sn1 2.093774 1_555
O10 P2 1.563991 1_555
O10 Sb0 1.972976 1_555
O11 P3 1.554457 1_555
O11 Sn1 2.082726 1_555
O12 P1 1.557711 1_545
O12 Sb0 1.980358 1_555
O13 P2 1.556283 1_555
O13 Sn2 2.082581 1_555
O14 P4 1.554123 1_555
O14 Sn2 2.068796 1_555
O15 P3 1.525981 1_555
O15 Sn0 2.025694 1_555
O16 P1 1.530992 1_545
O16 Sn2 2.029887 1_556
O17 P3 1.558070 1_555
O17 Sb0 1.978090 1_555
O18 P5 1.550770 1_555
O18 Sn2 2.066916 1_455
O19 P4 1.557158 1_555
O19 Sb0 1.969618 1_655
O20 P5 1.525975 1_555
O20 Sn0 2.038232 1_555
O21 P3 1.531225 1_555
O21 Sn2 2.021787 1_556
O22 P5 1.563583 1_555
O22 Sb0 1.970707 1_565
O23 P0 1.531311 1_555
O23 Sn2 2.032182 1_556
