# generated using pymatgen
data_LiFe4(BO3)4
_symmetry_space_group_name_H-M   'P 1'
_cell_length_a   5.32426600
_cell_length_b   9.02163015
_cell_length_c   11.30151634
_cell_angle_alpha   113.30830377
_cell_angle_beta   102.76801313
_cell_angle_gamma   90.10500005
_symmetry_Int_Tables_number   1
_chemical_formula_structural   LiFe4(BO3)4
_chemical_formula_sum   'Li2 Fe8 B8 O24'
_cell_volume   483.80020340
_cell_formula_units_Z   2
loop_
 _symmetry_equiv_pos_site_id
 _symmetry_equiv_pos_as_xyz
  1  'x, y, z'
loop_
 _atom_site_type_symbol
 _atom_site_label
 _atom_site_symmetry_multiplicity
 _atom_site_fract_x
 _atom_site_fract_y
 _atom_site_fract_z
 _atom_site_occupancy
  Li  Li0  1  0.39898500  0.04158200  0.09788600  1
  Li  Li1  1  0.06954900  0.40810300  0.84061900  1
  Fe  Fe0  1  0.59679000  0.60895500  0.87442300  1
  Fe  Fe1  1  0.90094200  0.89800900  0.12445400  1
  Fe  Fe2  1  0.15737900  0.47641600  0.61730700  1
  Fe  Fe3  1  0.34638700  0.01728800  0.37178400  1
  Fe  Fe4  1  0.65029900  0.98057000  0.62598700  1
  Fe  Fe5  1  0.84899700  0.51975600  0.36855300  1
  Fe  Fe6  1  0.09595800  0.08445800  0.86723400  1
  Fe  Fe7  1  0.39780700  0.39893300  0.12087100  1
  B  B0  1  0.35566900  0.35329400  0.36685500  1
  B  B1  1  0.11303500  0.76186400  0.87685900  1
  B  B2  1  0.85625900  0.85835000  0.37652700  1
  B  B3  1  0.59705200  0.27449600  0.87058400  1
  B  B4  1  0.14864700  0.14043400  0.62361700  1
  B  B5  1  0.39532500  0.72844800  0.12197100  1
  B  B6  1  0.64879600  0.64225000  0.62308200  1
  B  B7  1  0.89059700  0.23078000  0.12291500  1
  O  O0  1  0.88116800  0.76366300  0.91338800  1
  O  O1  1  0.53154800  0.54321600  0.66982800  1
  O  O2  1  0.76337900  0.09766800  0.11747300  1
  O  O3  1  0.44283400  0.20916900  0.35569200  1
  O  O4  1  0.14244700  0.40560300  0.42207700  1
  O  O5  1  0.20643400  0.60638500  0.82344100  1
  O  O6  1  0.71894000  0.40789400  0.86853900  1
  O  O7  1  0.97606800  0.95942000  0.33497900  1
  O  O8  1  0.30720500  0.88270400  0.17290800  1
  O  O9  1  0.36326300  0.09496200  0.57106900  1
  O  O10  1  0.06927500  0.29158400  0.64570700  1
  O  O11  1  0.60322000  0.71760700  0.06418900  1
  O  O12  1  0.36883000  0.28917500  0.91766100  1
  O  O13  1  0.63623200  0.90692200  0.42557800  1
  O  O14  1  0.69662400  0.12634700  0.82369300  1
  O  O15  1  0.02644600  0.03669500  0.66145700  1
  O  O16  1  0.28002600  0.59614900  0.12426500  1
  O  O17  1  0.78338500  0.38086000  0.16441400  1
  O  O18  1  0.86172300  0.58642500  0.56932800  1
  O  O19  1  0.55733400  0.78241400  0.62863500  1
  O  O20  1  0.94705500  0.71605700  0.36925900  1
  O  O21  1  0.24891700  0.89899700  0.89846500  1
  O  O22  1  0.47103400  0.45631900  0.32408500  1
  O  O23  1  0.13129600  0.22403400  0.08841400  1
loop_
_geom_bond_atom_site_label_1
_geom_bond_atom_site_label_2
_geom_bond_distance
_geom_bond_site_symmetry_2
Li0 O2 1.946038 1_555
Li0 O8 2.038234 1_545
Li0 O21 2.068471 1_544
Li0 O23 2.198352 1_555
Li0 O3 2.653577 1_555
Li1 O6 1.960888 1_455
Li1 O5 2.025177 1_555
Li1 O10 2.030634 1_555
Li1 O12 2.140247 1_555
Fe0 O6 1.909346 1_555
Fe0 O0 1.909350 1_555
Fe0 O11 1.966040 1_556
Fe0 O5 2.027816 1_555
Fe0 O1 2.092330 1_555
Fe1 O2 1.969498 1_565
Fe1 O11 2.064350 1_555
Fe1 O8 2.129578 1_655
Fe1 O7 2.159438 1_555
Fe1 O0 2.184187 1_554
Fe2 O10 1.894938 1_555
Fe2 O18 1.952245 1_455
Fe2 O1 1.968278 1_555
Fe2 O4 2.022238 1_555
Fe2 O5 2.106775 1_555
Fe3 O3 1.892236 1_555
Fe3 O7 1.948065 1_445
Fe3 O13 1.952553 1_545
Fe3 O8 2.049797 1_545
Fe3 O9 2.057425 1_555
Fe4 O19 1.867450 1_555
Fe4 O9 1.969572 1_565
Fe4 O15 1.977047 1_665
Fe4 O14 2.052481 1_565
Fe4 O13 2.076271 1_555
Fe5 O20 1.841876 1_555
Fe5 O4 1.987143 1_655
Fe5 O22 1.987689 1_555
Fe5 O18 2.089707 1_555
Fe5 O17 2.090272 1_555
Fe6 O21 1.983069 1_545
Fe6 O15 2.134710 1_555
Fe6 O14 2.143169 1_455
Fe6 O12 2.153548 1_555
Fe6 O23 2.273702 1_556
Fe7 O16 1.876439 1_555
Fe7 O23 1.985304 1_555
Fe7 O17 2.025195 1_555
Fe7 O12 2.078895 1_554
Fe7 O22 2.087364 1_555
B0 O3 1.349150 1_555
B0 O22 1.399814 1_555
B0 O4 1.408206 1_555
B1 O21 1.339097 1_555
B1 O0 1.383756 1_455
B1 O5 1.429816 1_555
B2 O20 1.350833 1_555
B2 O7 1.388481 1_555
B2 O13 1.402992 1_555
B3 O6 1.376881 1_555
B3 O14 1.383660 1_555
B3 O12 1.416932 1_555
B4 O10 1.371027 1_555
B4 O15 1.385491 1_555
B4 O9 1.391239 1_555
B5 O16 1.353118 1_555
B5 O11 1.389445 1_555
B5 O8 1.405696 1_555
B6 O19 1.339038 1_555
B6 O18 1.404394 1_555
B6 O1 1.408655 1_555
B7 O2 1.350875 1_555
B7 O17 1.413391 1_555
B7 O23 1.414380 1_655
