# generated using pymatgen
data_Mn6O5F7
_symmetry_space_group_name_H-M   'P 1'
_cell_length_a   4.75080900
_cell_length_b   5.66489501
_cell_length_c   7.91963311
_cell_angle_alpha   86.80633176
_cell_angle_beta   88.19775389
_cell_angle_gamma   88.34048584
_symmetry_Int_Tables_number   1
_chemical_formula_structural   Mn6O5F7
_chemical_formula_sum   'Mn6 O5 F7'
_cell_volume   212.62441417
_cell_formula_units_Z   1
loop_
 _symmetry_equiv_pos_site_id
 _symmetry_equiv_pos_as_xyz
  1  'x, y, z'
loop_
 _atom_site_type_symbol
 _atom_site_label
 _atom_site_symmetry_multiplicity
 _atom_site_fract_x
 _atom_site_fract_y
 _atom_site_fract_z
 _atom_site_occupancy
  Mn  Mn0  1  0.48753100  0.48752100  0.00370300  1
  Mn  Mn1  1  0.49234000  0.16718700  0.33527900  1
  Mn  Mn2  1  0.53421600  0.83620200  0.65586700  1
  Mn  Mn3  1  0.00321100  0.66698600  0.32906600  1
  Mn  Mn4  1  0.94458500  0.33404500  0.67026900  1
  Mn  Mn5  1  0.02601200  0.01328300  0.00739900  1
  O  O0  1  0.80935700  0.63920600  0.55103500  1
  O  O1  1  0.80361600  0.28621800  0.90792000  1
  O  O2  1  0.67614500  0.12044700  0.55033900  1
  O  O3  1  0.30990300  0.21596000  0.11728300  1
  O  O4  1  0.19534500  0.71011400  0.10548100  1
  F  F0  1  0.79104000  0.97035000  0.23276100  1
  F  F1  1  0.70320100  0.78619000  0.90842600  1
  F  F2  1  0.70794500  0.47086100  0.24113000  1
  F  F3  1  0.28911900  0.85985200  0.42655900  1
  F  F4  1  0.32252200  0.54950000  0.75465700  1
  F  F5  1  0.19244700  0.35652300  0.44333000  1
  F  F6  1  0.21146800  0.02955600  0.75949500  1
loop_
_geom_bond_atom_site_label_1
_geom_bond_atom_site_label_2
_geom_bond_distance
_geom_bond_site_symmetry_2
Mn0 O3 1.939350 1_555
Mn0 O1 2.014045 1_554
Mn0 O4 2.026847 1_555
Mn1 O2 1.939951 1_555
Mn1 O3 1.958385 1_555
Mn2 O0 1.895721 1_555
Mn2 O2 1.903527 1_565
Mn3 O0 1.959320 1_455
Mn3 O4 1.972650 1_555
Mn4 O1 1.984608 1_555
Mn4 O0 2.021085 1_555
Mn4 O2 2.070333 1_555
Mn5 O1 1.987359 1_454
Mn5 O4 2.002678 1_545
Mn5 O3 2.041916 1_555
F0 Mn1 1.962920 1_565
F0 Mn5 2.081535 1_665
F0 Mn3 2.086397 1_655
F0 O2 2.733443 1_565
F0 F1 2.872543 1_554
F1 Mn0 2.095550 1_556
F1 Mn2 2.179488 1_555
F1 Mn5 2.218912 1_666
F1 F4 2.648121 1_555
F1 O1 2.858731 1_555
F1 O4 2.860778 1_656
F1 O4 2.861977 1_556
F1 O1 2.885851 1_565
F1 F6 2.924879 1_565
F2 Mn3 1.981168 1_655
F2 Mn1 2.115564 1_555
F2 Mn0 2.177023 1_555
F2 O0 2.743560 1_555
F3 Mn3 1.969957 1_555
F3 Mn1 2.097400 1_565
F3 Mn2 2.183723 1_555
F4 Mn2 2.040818 1_555
F4 Mn0 2.152241 1_556
F4 Mn4 2.335270 1_455
F4 F6 2.757274 1_565
F4 F5 2.844539 1_555
F5 Mn1 1.962041 1_555
F5 Mn4 2.117330 1_455
F5 Mn3 2.121926 1_555
F5 O0 2.547560 1_455
F6 Mn2 2.036682 1_545
F6 Mn5 2.124874 1_556
F6 Mn4 2.208185 1_455
F6 O2 2.761007 1_555
