# generated using pymatgen
data_Li2TiVO4
_symmetry_space_group_name_H-M   'P 1'
_cell_length_a   5.22885600
_cell_length_b   5.98803453
_cell_length_c   7.90521857
_cell_angle_alpha   100.92394813
_cell_angle_beta   109.01515211
_cell_angle_gamma   90.16731290
_symmetry_Int_Tables_number   1
_chemical_formula_structural   Li2TiVO4
_chemical_formula_sum   'Li6 Ti3 V3 O12'
_cell_volume   229.21199762
_cell_formula_units_Z   3
loop_
 _symmetry_equiv_pos_site_id
 _symmetry_equiv_pos_as_xyz
  1  'x, y, z'
loop_
 _atom_site_type_symbol
 _atom_site_label
 _atom_site_symmetry_multiplicity
 _atom_site_fract_x
 _atom_site_fract_y
 _atom_site_fract_z
 _atom_site_occupancy
  Li  Li0  1  0.99891800  0.08457100  0.83262200  1
  Li  Li1  1  0.99674600  0.25318400  0.50246300  1
  Li  Li2  1  0.99759100  0.57421700  0.83257400  1
  Li  Li3  1  0.00108200  0.91542900  0.16737800  1
  Li  Li4  1  0.00240900  0.42578300  0.16742600  1
  Li  Li5  1  0.00325400  0.74681600  0.49753700  1
  Ti  Ti0  1  0.49723900  0.81557800  0.83504700  1
  Ti  Ti1  1  0.50276100  0.18442200  0.16495300  1
  Ti  Ti2  1  0.50000000  0.00000000  0.50000000  1
  V  V0  1  0.50133800  0.32208400  0.83508700  1
  V  V1  1  0.49866200  0.67791600  0.16491300  1
  V  V2  1  0.50000000  0.50000000  0.50000000  1
  O  O0  1  0.73863900  0.63103400  0.98929700  1
  O  O1  1  0.72800100  0.10752600  0.00368600  1
  O  O2  1  0.73644400  0.44947600  0.32159800  1
  O  O3  1  0.72610300  0.97622300  0.33589300  1
  O  O4  1  0.73503000  0.27496500  0.65843300  1
  O  O5  1  0.72566500  0.80409400  0.66681500  1
  O  O6  1  0.27199900  0.89247400  0.99631400  1
  O  O7  1  0.26136100  0.36896600  0.01070300  1
  O  O8  1  0.27433500  0.19590600  0.33318500  1
  O  O9  1  0.26497000  0.72503500  0.34156700  1
  O  O10  1  0.27389700  0.02377700  0.66410700  1
  O  O11  1  0.26355600  0.55052400  0.67840200  1
loop_
_geom_bond_atom_site_label_1
_geom_bond_atom_site_label_2
_geom_bond_distance
_geom_bond_site_symmetry_2
Li0 O6 2.099105 1_645
Li0 O4 2.113276 1_555
Li0 O5 2.124031 1_545
Li0 O7 2.141006 1_656
Li0 O1 2.243504 1_556
Li0 O10 2.245413 1_655
Li1 O3 2.105074 1_545
Li1 O4 2.109399 1_555
Li1 O2 2.157907 1_555
Li1 O11 2.198496 1_655
Li1 O10 2.256157 1_655
Li1 O8 2.260482 1_655
Li2 O0 2.102416 1_555
Li2 O11 2.116514 1_655
Li2 O7 2.189969 1_656
Li2 O4 2.193185 1_555
Li2 O5 2.261523 1_555
Li2 O6 2.281424 1_655
Li3 O1 2.099105 1_465
Li3 O9 2.113276 1_555
Li3 O8 2.124031 1_565
Li3 O0 2.141006 1_454
Li3 O6 2.243504 1_554
Li3 O3 2.245413 1_455
Li4 O7 2.102416 1_555
Li4 O2 2.116514 1_455
Li4 O0 2.189969 1_454
Li4 O9 2.193185 1_555
Li4 O8 2.261523 1_555
Li4 O1 2.281424 1_455
Li5 O10 2.105074 1_565
Li5 O9 2.109399 1_555
Li5 O11 2.157907 1_555
Li5 O2 2.198496 1_455
Li5 O3 2.256157 1_455
Li5 O5 2.260482 1_455
O0 Ti0 1.953762 1_555
O0 V1 2.137799 1_556
O0 V0 2.143450 1_555
O1 Ti1 1.995855 1_555
O1 Ti0 2.084588 1_544
O1 V0 2.111936 1_554
O2 Ti1 1.950201 1_555
O2 V2 2.141420 1_555
O2 V1 2.144715 1_555
O3 Ti2 2.007841 1_565
O3 Ti1 2.088735 1_565
O3 V1 2.111175 1_555
O4 Ti2 1.998372 1_555
O4 V0 2.118390 1_555
O4 V2 2.130976 1_555
O5 Ti2 2.021855 1_565
O5 Ti0 2.049612 1_555
O5 V2 2.123785 1_555
O6 Ti0 1.995855 1_555
O6 Ti1 2.084588 1_566
O6 V1 2.111936 1_556
O7 Ti1 1.953762 1_555
O7 V0 2.137799 1_554
O7 V1 2.143450 1_555
O8 Ti2 2.021855 1_555
O8 Ti1 2.049612 1_555
O8 V2 2.123785 1_555
O9 Ti2 1.998372 1_565
O9 V1 2.118390 1_555
O9 V2 2.130976 1_555
O10 Ti2 2.007841 1_555
O10 Ti0 2.088735 1_545
O10 V0 2.111175 1_555
O11 Ti0 1.950201 1_555
O11 V2 2.141420 1_555
O11 V0 2.144715 1_555
