# generated using pymatgen
data_LiFe8(BO3)8
_symmetry_space_group_name_H-M   'P 1'
_cell_length_a   5.21654000
_cell_length_b   9.18765843
_cell_length_c   10.20243736
_cell_angle_alpha   89.93298622
_cell_angle_beta   89.92993051
_cell_angle_gamma   89.01908396
_symmetry_Int_Tables_number   1
_chemical_formula_structural   LiFe8(BO3)8
_chemical_formula_sum   'Li1 Fe8 B8 O24'
_cell_volume   488.90790482
_cell_formula_units_Z   1
loop_
 _symmetry_equiv_pos_site_id
 _symmetry_equiv_pos_as_xyz
  1  'x, y, z'
loop_
 _atom_site_type_symbol
 _atom_site_label
 _atom_site_symmetry_multiplicity
 _atom_site_fract_x
 _atom_site_fract_y
 _atom_site_fract_z
 _atom_site_occupancy
  Li  Li0  1  0.84064700  0.82699800  0.65553800  1
  Fe  Fe0  1  0.82567400  0.16882300  0.62744300  1
  Fe  Fe1  1  0.82637600  0.49784200  0.12802900  1
  Fe  Fe2  1  0.67014700  0.00877000  0.88237100  1
  Fe  Fe3  1  0.66847000  0.33894200  0.37544600  1
  Fe  Fe4  1  0.33871900  0.65546400  0.62706700  1
  Fe  Fe5  1  0.32897100  0.99678600  0.12523000  1
  Fe  Fe6  1  0.17346200  0.83522100  0.37522700  1
  Fe  Fe7  1  0.17323700  0.50630000  0.88022100  1
  B  B0  1  0.84775300  0.50137700  0.62423500  1
  B  B1  1  0.82903900  0.16850800  0.13264600  1
  B  B2  1  0.66356700  0.00355200  0.38335300  1
  B  B3  1  0.67268200  0.33609500  0.87531400  1
  B  B4  1  0.33333100  0.99341500  0.62491000  1
  B  B5  1  0.32518200  0.67080900  0.12850400  1
  B  B6  1  0.16040700  0.50220800  0.37659600  1
  B  B7  1  0.17699200  0.82949600  0.87002100  1
  O  O0  1  0.91018200  0.49832000  0.32729000  1
  O  O1  1  0.93051000  0.85112300  0.83736000  1
  O  O2  1  0.78187900  0.21400800  0.81608600  1
  O  O3  1  0.73779500  0.13946600  0.43141400  1
  O  O4  1  0.82762500  0.88751000  0.39013500  1
  O  O5  1  0.83519000  0.43731700  0.93431800  1
  O  O6  1  0.70064000  0.62654800  0.62572500  1
  O  O7  1  0.66846500  0.06514900  0.08192400  1
  O  O8  1  0.75704600  0.37293400  0.57129500  1
  O  O9  1  0.71713900  0.29959500  0.17974800  1
  O  O10  1  0.58022800  0.64656900  0.13206600  1
  O  O11  1  0.59213400  0.99681900  0.65809400  1
  O  O12  1  0.41631200  0.99014700  0.33264900  1
  O  O13  1  0.41649400  0.35872100  0.87817800  1
  O  O14  1  0.30361700  0.69975000  0.82366400  1
  O  O15  1  0.24054400  0.63346300  0.43344900  1
  O  O16  1  0.31986600  0.38573400  0.37232100  1
  O  O17  1  0.32523700  0.92783900  0.93875400  1
  O  O18  1  0.16208700  0.56894100  0.07207200  1
  O  O19  1  0.17124800  0.10896600  0.63144300  1
  O  O20  1  0.23735000  0.85729100  0.58099000  1
  O  O21  1  0.21093100  0.79689300  0.18161200  1
  O  O22  1  0.08616400  0.14641400  0.13743600  1
  O  O23  1  0.09558100  0.50249200  0.67667200  1
loop_
_geom_bond_atom_site_label_1
_geom_bond_atom_site_label_2
_geom_bond_distance
_geom_bond_site_symmetry_2
Li0 O1 1.927862 1_555
Li0 O11 2.011576 1_555
Li0 O6 2.016326 1_555
Li0 O20 2.225712 1_655
Fe0 O19 1.876171 1_655
Fe0 O2 1.981474 1_555
Fe0 O8 1.986977 1_555
Fe0 O11 2.035484 1_545
Fe0 O3 2.071361 1_555
Fe1 O10 1.859456 1_555
Fe1 O18 1.963508 1_655
Fe1 O9 1.988287 1_555
Fe1 O5 2.053941 1_554
Fe1 O0 2.079971 1_555
Fe2 O1 2.021419 1_545
Fe2 O17 2.040423 1_545
Fe2 O2 2.094384 1_555
Fe2 O7 2.101347 1_556
Fe2 O11 2.327616 1_545
Fe3 O16 1.861759 1_555
Fe3 O3 1.947062 1_555
Fe3 O0 2.008850 1_555
Fe3 O9 2.044223 1_555
Fe3 O8 2.076595 1_555
Fe4 O6 1.902102 1_555
Fe4 O23 1.974314 1_555
Fe4 O20 1.975881 1_555
Fe4 O15 2.052365 1_555
Fe4 O14 2.054423 1_555
Fe5 O22 1.857444 1_565
Fe5 O7 1.939490 1_565
Fe5 O17 2.006123 1_554
Fe5 O21 2.029371 1_555
Fe5 O12 2.165786 1_555
Fe6 O4 1.865056 1_455
Fe6 O12 1.969420 1_555
Fe6 O15 1.971589 1_555
Fe6 O21 2.015570 1_555
Fe6 O20 2.136399 1_555
Fe7 O13 1.841267 1_555
Fe7 O5 1.962418 1_455
Fe7 O14 1.998135 1_555
Fe7 O18 2.041331 1_556
Fe7 O23 2.116768 1_555
B0 O6 1.371687 1_555
B0 O8 1.389054 1_555
B0 O23 1.399934 1_655
B1 O22 1.354069 1_655
B1 O7 1.378649 1_555
B1 O9 1.413792 1_555
B2 O4 1.357433 1_545
B2 O12 1.397718 1_545
B2 O3 1.402907 1_555
B3 O13 1.349251 1_555
B3 O2 1.388051 1_555
B3 O5 1.405514 1_555
B4 O19 1.347484 1_565
B4 O11 1.393140 1_555
B4 O20 1.427910 1_555
B5 O10 1.345731 1_555
B5 O18 1.400361 1_555
B5 O21 1.402769 1_555
B6 O16 1.344820 1_555
B6 O0 1.400501 1_455
B6 O15 1.408882 1_555
B7 O1 1.340113 1_455
B7 O17 1.390287 1_555
B7 O14 1.433391 1_555
