# generated using pymatgen
data_Y11Tm5O24
_symmetry_space_group_name_H-M   'P 1'
_cell_length_a   9.12281885
_cell_length_b   9.12237218
_cell_length_c   9.12248852
_cell_angle_alpha   109.42449811
_cell_angle_beta   109.45307599
_cell_angle_gamma   109.46009227
_symmetry_Int_Tables_number   1
_chemical_formula_structural   Y11Tm5O24
_chemical_formula_sum   'Y11 Tm5 O24'
_cell_volume   584.97174408
_cell_formula_units_Z   1
loop_
 _symmetry_equiv_pos_site_id
 _symmetry_equiv_pos_as_xyz
  1  'x, y, z'
loop_
 _atom_site_type_symbol
 _atom_site_label
 _atom_site_symmetry_multiplicity
 _atom_site_fract_x
 _atom_site_fract_y
 _atom_site_fract_z
 _atom_site_occupancy
  Y  Y0  1  0.75013860  0.78218336  0.03234420  1
  Y  Y1  1  0.49772289  0.99941313  0.99918542  1
  Y  Y2  1  0.03379400  0.24965073  0.28168124  1
  Y  Y3  1  0.21851548  0.46746968  0.75108357  1
  Y  Y4  1  0.71837528  0.96820343  0.74929045  1
  Y  Y5  1  0.00160721  0.99991798  0.50121638  1
  Y  Y6  1  0.25034134  0.71922722  0.46709653  1
  Y  Y7  1  0.00024223  0.50125075  0.99983649  1
  Y  Y8  1  0.74890402  0.28173813  0.53226028  1
  Y  Y9  1  0.50038634  0.49942784  0.49876137  1
  Y  Y10  1  0.78021273  0.53182345  0.24963468  1
  Tm  Tm0  1  0.46617943  0.74986235  0.21636256  1
  Tm  Tm1  1  0.28306516  0.03247470  0.24909443  1
  Tm  Tm2  1  0.53173078  0.24955530  0.78231570  1
  Tm  Tm3  1  0.96817128  0.75108564  0.71872329  1
  Tm  Tm4  1  0.25043946  0.21660398  0.96721941  1
  O  O0  1  0.27321981  0.51200327  0.54300371  1
  O  O1  1  0.46789844  0.72955129  0.95973034  1
  O  O2  1  0.72683816  0.76185479  0.27232139  1
  O  O3  1  0.22597533  0.95716739  0.96844660  1
  O  O4  1  0.01204531  0.54593751  0.77205472  1
  O  O5  1  0.51116899  0.73975325  0.46521538  1
  O  O6  1  0.22994877  0.77322974  0.23766444  1
  O  O7  1  0.03492951  0.98771825  0.26063362  1
  O  O8  1  0.74238222  0.72867650  0.77027360  1
  O  O9  1  0.95762463  0.22759949  0.48888150  1
  O  O10  1  0.24228079  0.46819490  0.01434958  1
  O  O11  1  0.45773089  0.97185878  0.72884739  1
  O  O12  1  0.75603417  0.52767085  0.98549923  1
  O  O13  1  0.04167281  0.77076498  0.51416800  1
  O  O14  1  0.53933163  0.02904615  0.27023360  1
  O  O15  1  0.26237764  0.26924853  0.22651058  1
  O  O16  1  0.77056556  0.23039203  0.76152568  1
  O  O17  1  0.97245632  0.01277580  0.74299089  1
  O  O18  1  0.98906049  0.45822378  0.22824297  1
  O  O19  1  0.48465878  0.25645177  0.53060419  1
  O  O20  1  0.27358636  0.23892546  0.73099076  1
  O  O21  1  0.77028204  0.04245214  0.03148312  1
  O  O22  1  0.73005766  0.49057222  0.45979371  1
  O  O23  1  0.52804544  0.27004047  0.04042902  1
loop_
_geom_bond_atom_site_label_1
_geom_bond_atom_site_label_2
_geom_bond_distance
_geom_bond_site_symmetry_2
O0 Y3 2.241894 1_555
O0 Y6 2.265804 1_555
O0 Y9 2.270598 1_555
O0 Y2 2.331434 1_555
O0 O1 3.111458 1_555
O1 Y3 2.231490 1_555
O1 Y0 2.264451 1_556
O1 Y1 2.272239 1_555
O1 Tm0 2.292011 1_556
O2 Tm0 2.215434 1_555
O2 Y10 2.267691 1_555
O2 Y5 2.286954 1_655
O2 Y0 2.329342 1_555
O2 O5 3.047279 1_555
O3 Tm3 2.211810 1_455
O3 Tm1 2.236398 1_566
O3 Y1 2.280704 1_555
O3 Tm4 2.306175 1_565
O3 O4 3.068252 1_555
O4 Tm3 2.207750 1_455
O4 Y3 2.268083 1_555
O4 Y7 2.275695 1_555
O4 Y8 2.344634 1_455
O5 Tm0 2.207811 1_555
O5 Y4 2.269858 1_555
O5 Y9 2.287415 1_555
O5 Y6 2.330185 1_555
O6 Tm1 2.208469 1_565
O6 Y6 2.268352 1_555
O6 Y7 2.276267 1_554
O6 Tm0 2.298934 1_555
O6 O7 3.054951 1_555
O7 Tm1 2.207620 1_565
O7 Y0 2.270648 1_455
O7 Y5 2.286052 1_555
O7 Y2 2.336469 1_565
O8 Tm3 2.221358 1_555
O8 Y0 2.246557 1_556
O8 Y9 2.284417 1_555
O8 Y4 2.329850 1_555
O9 Y8 2.241575 1_555
O9 Y2 2.265110 1_655
O9 Y5 2.273374 1_645
O9 Y3 2.330432 1_655
O10 Tm4 2.221871 1_554
O10 Tm0 2.239816 1_555
O10 Y7 2.293368 1_554
O10 Y3 2.335934 1_554
O10 O15 3.065111 1_555
O11 Tm2 2.220440 1_565
O11 Y6 2.240071 1_555
O11 Y1 2.281557 1_555
O11 Y4 2.334841 1_555
O11 O13 3.102783 1_555
O12 Tm2 2.224039 1_555
O12 Y0 2.239343 1_556
O12 Y7 2.285439 1_655
O12 Y10 2.331488 1_556
O12 O8 3.101058 1_555
O13 Tm3 2.222622 1_455
O13 Y6 2.244064 1_555
O13 Y5 2.272009 1_555
O13 Y10 2.338230 1_455
O14 Tm0 2.233779 1_545
O14 Y8 2.244402 1_555
O14 Y1 2.278809 1_544
O14 Tm1 2.292653 1_555
O14 O9 3.121384 1_555
O15 Tm4 2.208059 1_554
O15 Y2 2.268118 1_555
O15 Y9 2.278937 1_555
O15 Tm1 2.298933 1_555
O16 Y4 2.233392 1_545
O16 Y8 2.251815 1_555
O16 Y7 2.272718 1_655
O16 Tm2 2.306703 1_555
O17 Tm4 2.223943 1_655
O17 Y4 2.240032 1_545
O17 Y5 2.277824 1_645
O17 Tm3 2.308673 1_545
O18 Y2 2.241913 1_655
O18 Y10 2.265348 1_555
O18 Y7 2.272635 1_654
O18 Y6 2.325269 1_655
O18 O21 3.103650 1_555
O19 Tm2 2.217737 1_555
O19 Tm1 2.238845 1_555
O19 Y9 2.293913 1_555
O19 Y8 2.338299 1_555
O19 O20 3.067394 1_555
O20 Tm2 2.204060 1_555
O20 Y3 2.266658 1_555
O20 Y5 2.279341 1_545
O20 Tm4 2.301383 1_555
O21 Y2 2.238200 1_655
O21 Y4 2.263762 1_544
O21 Y1 2.282168 1_544
O21 Y0 2.322421 1_545
O22 Y10 2.230681 1_555
O22 Y8 2.253006 1_555
O22 Y9 2.261139 1_555
O22 Tm3 2.314062 1_555
O23 Tm4 2.220761 1_554
O23 Y10 2.240811 1_555
O23 Y1 2.273919 1_544
O23 Tm2 2.311841 1_554
