# generated using pymatgen
data_LiTi2(PO4)3
_symmetry_space_group_name_H-M   'P 1'
_cell_length_a   8.65444800
_cell_length_b   8.70524200
_cell_length_c   12.02978600
_cell_angle_alpha   90.00000000
_cell_angle_beta   90.00000000
_cell_angle_gamma   90.00000000
_symmetry_Int_Tables_number   1
_chemical_formula_structural   LiTi2(PO4)3
_chemical_formula_sum   'Li4 Ti8 P12 O48'
_cell_volume   906.31281996
_cell_formula_units_Z   4
loop_
 _symmetry_equiv_pos_site_id
 _symmetry_equiv_pos_as_xyz
  1  'x, y, z'
loop_
 _atom_site_type_symbol
 _atom_site_label
 _atom_site_symmetry_multiplicity
 _atom_site_fract_x
 _atom_site_fract_y
 _atom_site_fract_z
 _atom_site_occupancy
  Li  Li0  1  0.96356700  0.77727400  0.06978900  1
  Li  Li1  1  0.53643300  0.27727400  0.06978900  1
  Li  Li2  1  0.03643300  0.27727400  0.93021100  1
  Li  Li3  1  0.46356700  0.77727400  0.93021100  1
  Ti  Ti0  1  0.00030300  0.53605300  0.62698600  1
  Ti  Ti1  1  0.49969700  0.03605300  0.62698600  1
  Ti  Ti2  1  0.50030300  0.53605300  0.37301400  1
  Ti  Ti3  1  0.99969700  0.03605300  0.37301400  1
  Ti  Ti4  1  0.00423200  0.45936500  0.13922400  1
  Ti  Ti5  1  0.49576800  0.95936500  0.13922400  1
  Ti  Ti6  1  0.99576800  0.95936500  0.86077600  1
  Ti  Ti7  1  0.50423200  0.45936500  0.86077600  1
  P  P0  1  0.78875700  0.25034700  0.74734800  1
  P  P1  1  0.71124300  0.75034700  0.74734800  1
  P  P2  1  0.35416900  0.39105600  0.60292400  1
  P  P3  1  0.14583100  0.89105600  0.60292400  1
  P  P4  1  0.85416900  0.39105600  0.39707600  1
  P  P5  1  0.64583100  0.89105600  0.39707600  1
  P  P6  1  0.21124300  0.75034700  0.25265200  1
  P  P7  1  0.28875700  0.25034700  0.25265200  1
  P  P8  1  0.85464300  0.10593200  0.10518200  1
  P  P9  1  0.64535700  0.60593200  0.10518200  1
  P  P10  1  0.14535700  0.60593200  0.89481800  1
  P  P11  1  0.35464300  0.10593200  0.89481800  1
  O  O0  1  0.41184300  0.43161600  0.72311600  1
  O  O1  1  0.08815700  0.93161600  0.72311600  1
  O  O2  1  0.60715200  0.85247600  0.67657600  1
  O  O3  1  0.89284800  0.35247600  0.67657600  1
  O  O4  1  0.81223000  0.64737700  0.67570800  1
  O  O5  1  0.68777000  0.14737700  0.67570800  1
  O  O6  1  0.17820400  0.40747300  0.59667600  1
  O  O7  1  0.32179600  0.90747300  0.59667600  1
  O  O8  1  0.09825700  0.72489100  0.57837200  1
  O  O9  1  0.40174300  0.22489100  0.57837200  1
  O  O10  1  0.07074000  0.00607100  0.52235900  1
  O  O11  1  0.42926000  0.50607100  0.52235900  1
  O  O12  1  0.92926000  0.50607100  0.47764100  1
  O  O13  1  0.57074000  0.00607100  0.47764100  1
  O  O14  1  0.90174300  0.22489100  0.42162800  1
  O  O15  1  0.59825700  0.72489100  0.42162800  1
  O  O16  1  0.82179600  0.90747300  0.40332400  1
  O  O17  1  0.67820400  0.40747300  0.40332400  1
  O  O18  1  0.31223000  0.64737700  0.32429200  1
  O  O19  1  0.18777000  0.14737700  0.32429200  1
  O  O20  1  0.39284800  0.35247600  0.32342400  1
  O  O21  1  0.10715200  0.85247600  0.32342400  1
  O  O22  1  0.91184300  0.43161600  0.27688400  1
  O  O23  1  0.58815700  0.93161600  0.27688400  1
  O  O24  1  0.90812400  0.06669400  0.22201400  1
  O  O25  1  0.59187600  0.56669400  0.22201400  1
  O  O26  1  0.10343600  0.65784700  0.17258100  1
  O  O27  1  0.39656400  0.15784700  0.17258100  1
  O  O28  1  0.18601800  0.35134600  0.17484100  1
  O  O29  1  0.31398200  0.85134600  0.17484100  1
  O  O30  1  0.82429200  0.60167200  0.09418600  1
  O  O31  1  0.67570800  0.10167200  0.09418600  1
  O  O32  1  0.90928200  0.27041600  0.07040100  1
  O  O33  1  0.59071800  0.77041600  0.07040100  1
  O  O34  1  0.92453900  0.98689200  0.02270000  1
  O  O35  1  0.57546100  0.48689200  0.02270000  1
  O  O36  1  0.07546100  0.48689200  0.97730000  1
  O  O37  1  0.42453900  0.98689200  0.97730000  1
  O  O38  1  0.09071800  0.77041600  0.92959900  1
  O  O39  1  0.40928200  0.27041600  0.92959900  1
  O  O40  1  0.17570800  0.10167200  0.90581400  1
  O  O41  1  0.32429200  0.60167200  0.90581400  1
  O  O42  1  0.81398200  0.85134600  0.82515900  1
  O  O43  1  0.68601800  0.35134600  0.82515900  1
  O  O44  1  0.89656400  0.15784700  0.82741900  1
  O  O45  1  0.60343600  0.65784700  0.82741900  1
  O  O46  1  0.09187600  0.56669400  0.77798600  1
  O  O47  1  0.40812400  0.06669400  0.77798600  1
loop_
_geom_bond_atom_site_label_1
_geom_bond_atom_site_label_2
_geom_bond_distance
_geom_bond_site_symmetry_2
Li0 O34 1.940304 1_555
Li0 O30 1.968704 1_555
Li0 O38 2.014603 1_654
Li0 O26 2.018720 1_655
Li1 O35 1.940304 1_555
Li1 O31 1.968704 1_555
Li1 O39 2.014603 1_554
Li1 O27 2.018720 1_555
Li2 O36 1.940304 1_555
Li2 O40 1.968704 1_555
Li2 O32 2.014603 1_456
Li2 O44 2.018720 1_455
Li3 O37 1.940304 1_555
Li3 O41 1.968704 1_555
Li3 O33 2.014603 1_556
Li3 O45 2.018720 1_555
O0 P2 1.569837 1_555
O0 Ti7 1.854744 1_555
O1 P3 1.569837 1_555
O1 Ti6 1.854744 1_455
O2 P1 1.525382 1_555
O2 Ti1 1.942828 1_565
O3 P0 1.525382 1_555
O3 Ti0 1.942828 1_655
O4 P1 1.519892 1_555
O4 Ti0 1.982926 1_655
O5 P0 1.519892 1_555
O5 Ti1 1.982926 1_555
O6 P2 1.531417 1_555
O6 Ti0 1.938118 1_555
O7 P3 1.531417 1_555
O7 Ti1 1.938118 1_565
O8 P3 1.532689 1_555
O8 Ti0 1.939849 1_555
O9 P2 1.532689 1_555
O9 Ti1 1.939849 1_555
O10 P3 1.537566 1_545
O10 Ti3 1.916736 1_455
O11 P2 1.537566 1_555
O11 Ti2 1.916736 1_555
O12 P4 1.537566 1_555
O12 Ti0 1.916736 1_655
O13 P5 1.537566 1_545
O13 Ti1 1.916736 1_555
O14 P4 1.532689 1_555
O14 Ti3 1.939849 1_555
O15 P5 1.532689 1_555
O15 Ti2 1.939849 1_555
O16 P5 1.531417 1_555
O16 Ti3 1.938118 1_565
O17 P4 1.531417 1_555
O17 Ti2 1.938118 1_555
O18 P6 1.519892 1_555
O18 Ti2 1.982926 1_555
O19 P7 1.519892 1_555
O19 Ti3 1.982926 1_455
O20 P7 1.525382 1_555
O20 Ti2 1.942828 1_555
O21 P6 1.525382 1_555
O21 Ti3 1.942828 1_465
O22 P4 1.569837 1_555
O22 Ti4 1.854744 1_655
O23 P5 1.569837 1_555
O23 Ti5 1.854744 1_555
O24 P8 1.518628 1_555
O24 Ti3 1.999723 1_555
O25 P9 1.518628 1_555
O25 Ti2 1.999723 1_555
O26 P6 1.564205 1_555
O26 Ti4 1.970673 1_555
O27 P7 1.564205 1_555
O27 Ti5 1.970673 1_545
O28 P7 1.561987 1_555
O28 Ti4 1.882271 1_555
O29 P6 1.561987 1_555
O29 Ti5 1.882271 1_555
O30 P9 1.554665 1_555
O30 Ti4 2.062362 1_655
O31 P8 1.554665 1_555
O31 Ti5 2.062362 1_545
O32 P8 1.564906 1_555
O32 Ti4 2.016492 1_655
O33 P9 1.564906 1_555
O33 Ti5 2.016492 1_555
O34 P8 1.557023 1_565
O34 Ti6 2.057131 1_554
O35 P9 1.557023 1_555
O35 Ti7 2.057131 1_554
O36 P10 1.557023 1_555
O36 Ti4 2.057131 1_556
O37 P11 1.557023 1_565
O37 Ti5 2.057131 1_556
O38 P10 1.564906 1_555
O38 Ti6 2.016492 1_455
O39 P11 1.564906 1_555
O39 Ti7 2.016492 1_555
O40 P11 1.554665 1_555
O40 Ti6 2.062362 1_445
O41 P10 1.554665 1_555
O41 Ti7 2.062362 1_555
O42 P1 1.561987 1_555
O42 Ti6 1.882271 1_555
O43 P0 1.561987 1_555
O43 Ti7 1.882271 1_555
O44 P0 1.564205 1_555
O44 Ti6 1.970673 1_545
O45 P1 1.564205 1_555
O45 Ti7 1.970673 1_555
O46 P10 1.518628 1_555
O46 Ti0 1.999723 1_555
O47 P11 1.518628 1_555
O47 Ti1 1.999723 1_555
