# generated using pymatgen
data_Li3VFeP2(HO5)2
_symmetry_space_group_name_H-M   'P 1'
_cell_length_a   5.35437203
_cell_length_b   5.44471719
_cell_length_c   7.53299142
_cell_angle_alpha   106.15537654
_cell_angle_beta   108.67960119
_cell_angle_gamma   95.63454149
_symmetry_Int_Tables_number   1
_chemical_formula_structural   Li3VFeP2(HO5)2
_chemical_formula_sum   'Li3 V1 Fe1 P2 H2 O10'
_cell_volume   195.54695151
_cell_formula_units_Z   1
loop_
 _symmetry_equiv_pos_site_id
 _symmetry_equiv_pos_as_xyz
  1  'x, y, z'
loop_
 _atom_site_type_symbol
 _atom_site_label
 _atom_site_symmetry_multiplicity
 _atom_site_fract_x
 _atom_site_fract_y
 _atom_site_fract_z
 _atom_site_occupancy
  Li  Li0  1  0.76479900  0.40505200  0.83280900  1
  Li  Li1  1  0.20650200  0.56833900  0.19236100  1
  Li  Li2  1  0.53636200  0.86550600  0.15034300  1
  V  V0  1  0.00933300  0.00234800  0.50691300  1
  Fe  Fe0  1  0.99636100  0.99797000  0.99320100  1
  P  P0  1  0.67367700  0.37323100  0.22722700  1
  P  P1  1  0.32216100  0.62508900  0.76487900  1
  H  H0  1  0.33233500  0.08031600  0.35500600  1
  H  H1  1  0.65622000  0.94409900  0.65212600  1
  O  O0  1  0.83868700  0.05354300  0.71262600  1
  O  O1  1  0.74510100  0.20614400  0.36817500  1
  O  O2  1  0.31152300  0.33597300  0.65611400  1
  O  O3  1  0.37547400  0.26096100  0.09328600  1
  O  O4  1  0.86217000  0.34924900  0.10682000  1
  O  O5  1  0.14096200  0.65169200  0.89322100  1
  O  O6  1  0.61934000  0.73764200  0.91381800  1
  O  O7  1  0.69006600  0.66815800  0.33381500  1
  O  O8  1  0.25553300  0.78229000  0.61930400  1
  O  O9  1  0.16785200  0.94363800  0.28494600  1
loop_
_geom_bond_atom_site_label_1
_geom_bond_atom_site_label_2
_geom_bond_distance
_geom_bond_site_symmetry_2
Li0 O0 2.013189 1_555
Li0 O6 2.055392 1_555
Li0 O4 2.077379 1_556
Li0 O5 2.146808 1_655
Li0 O2 2.297040 1_555
Li1 O4 1.901773 1_455
Li1 O9 2.021667 1_555
Li1 O3 2.052127 1_555
Li1 O5 2.345390 1_554
Li1 O7 2.401839 1_555
Li1 Li2 2.432992 1_555
Li2 O6 1.932409 1_554
Li2 O7 2.003378 1_555
Li2 O1 2.026380 1_565
Li2 O5 2.285516 1_554
Li2 O3 2.490964 1_565
Fe0 O0 2.129447 1_565
Fe0 O3 2.141841 1_666
Fe0 O5 2.142741 1_655
Fe0 O6 2.152914 1_555
Fe0 O4 2.158635 1_566
Fe0 O9 2.209771 1_656
H0 O9 0.981315 1_545
H0 Li2 2.294460 1_545
H1 O0 0.983184 1_565
H1 O8 2.146626 1_555
O0 V0 2.007614 1_655
O1 P0 1.564278 1_555
O1 V0 2.081255 1_655
O2 P1 1.545081 1_555
O2 V0 2.074308 1_555
O3 P0 1.540874 1_555
O4 P0 1.550710 1_555
O5 P1 1.564443 1_555
O6 P1 1.564808 1_555
O7 P0 1.562263 1_555
O7 V0 2.138798 1_665
O8 P1 1.547293 1_555
O8 V0 2.012435 1_565
O9 V0 2.069624 1_565
