# generated using pymatgen
data_Ti2N2O
_symmetry_space_group_name_H-M   'P 1'
_cell_length_a   8.22249677
_cell_length_b   8.21096346
_cell_length_c   8.22914773
_cell_angle_alpha   109.58299419
_cell_angle_beta   109.40814444
_cell_angle_gamma   109.41158030
_symmetry_Int_Tables_number   1
_chemical_formula_structural   Ti2N2O
_chemical_formula_sum   'Ti16 N16 O8'
_cell_volume   427.74845005
_cell_formula_units_Z   8
loop_
 _symmetry_equiv_pos_site_id
 _symmetry_equiv_pos_as_xyz
  1  'x, y, z'
loop_
 _atom_site_type_symbol
 _atom_site_label
 _atom_site_symmetry_multiplicity
 _atom_site_fract_x
 _atom_site_fract_y
 _atom_site_fract_z
 _atom_site_occupancy
  Ti  Ti0  1  0.95319300  0.24226200  0.19983800  1
  Ti  Ti1  1  0.51004100  0.01132900  0.99962900  1
  Ti  Ti2  1  0.79812200  0.04324000  0.76005800  1
  Ti  Ti3  1  0.69520900  0.45649500  0.23635700  1
  Ti  Ti4  1  0.74612100  0.28933500  0.53116200  1
  Ti  Ti5  1  0.75178100  0.78402600  0.04057200  1
  Ti  Ti6  1  0.00766200  0.50978200  0.99503800  1
  Ti  Ti7  1  0.00610300  0.99711500  0.50963000  1
  Ti  Ti8  1  0.49861500  0.49768300  0.50246100  1
  Ti  Ti9  1  0.45313500  0.25384400  0.70828600  1
  Ti  Ti10  1  0.53709700  0.73998700  0.29684900  1
  Ti  Ti11  1  0.25725100  0.71593100  0.46316100  1
  Ti  Ti12  1  0.24470400  0.21075300  0.95154800  1
  Ti  Ti13  1  0.29355800  0.54915600  0.75489800  1
  Ti  Ti14  1  0.21646100  0.95505400  0.25861600  1
  Ti  Ti15  1  0.04694100  0.75252500  0.79378400  1
  N  N0  1  0.73314800  0.22588200  0.27560200  1
  N  N1  1  0.46185100  0.22373100  0.44757500  1
  N  N2  1  0.77330200  0.72461200  0.26143300  1
  N  N3  1  0.45127500  0.45976300  0.22733200  1
  N  N4  1  0.04758500  0.27335700  0.01217700  1
  N  N5  1  0.51234100  0.23566000  0.95854800  1
  N  N6  1  0.98795700  0.94648200  0.72130300  1
  N  N7  1  0.27564000  0.73454900  0.22242100  1
  N  N8  1  0.95268900  0.72749300  0.99424700  1
  N  N9  1  0.54747900  0.54164300  0.77397900  1
  N  N10  1  0.22261300  0.27441800  0.73406000  1
  N  N11  1  0.53748500  0.77409100  0.54915100  1
  N  N12  1  0.03711800  0.48811700  0.76333700  1
  N  N13  1  0.72348100  0.98933400  0.95071200  1
  N  N14  1  0.26513500  0.77330400  0.72597700  1
  N  N15  1  0.23005300  0.95779100  0.50598500  1
  O  O0  1  0.76648500  0.04314100  0.49509100  1
  O  O1  1  0.96498500  0.50855500  0.24066200  1
  O  O2  1  0.27256300  0.00825500  0.04620300  1
  O  O3  1  0.01051700  0.05578900  0.27661000  1
  O  O4  1  0.72484100  0.26321600  0.77328100  1
  O  O5  1  0.77375200  0.55119000  0.54478500  1
  O  O6  1  0.48685500  0.76343700  0.03963900  1
  O  O7  1  0.22485400  0.44766900  0.45800400  1
loop_
_geom_bond_atom_site_label_1
_geom_bond_atom_site_label_2
_geom_bond_distance
_geom_bond_site_symmetry_2
N0 Ti4 1.945528 1_555
N0 Ti1 2.006871 1_554
N0 Ti0 2.079568 1_555
N0 Ti3 2.126684 1_555
N0 O0 2.711100 1_555
N1 Ti14 2.003122 1_545
N1 Ti4 2.018158 1_555
N1 Ti8 2.032596 1_555
N1 Ti9 2.104164 1_555
N1 O2 2.701472 1_555
N2 Ti3 1.992301 1_555
N2 Ti5 2.002651 1_555
N2 Ti7 2.081700 1_655
N2 Ti10 2.094635 1_555
N2 O1 2.737680 1_555
N3 Ti10 1.972182 1_555
N3 Ti3 1.991825 1_555
N3 Ti12 2.057952 1_554
N3 Ti8 2.058079 1_555
N3 N4 2.719569 1_555
N4 Ti0 1.995386 1_455
N4 Ti2 2.012394 1_454
N4 Ti12 2.014820 1_554
N4 Ti6 2.114843 1_554
N5 Ti3 1.974737 1_556
N5 Ti1 1.976367 1_555
N5 Ti9 2.022060 1_555
N5 Ti12 2.120538 1_555
N5 O4 2.677201 1_555
N6 Ti7 1.961180 1_655
N6 Ti15 2.021186 1_655
N6 Ti2 2.038299 1_565
N6 Ti12 2.072665 1_665
N6 O5 2.661999 1_555
N7 Ti14 1.980922 1_555
N7 Ti6 2.001101 1_554
N7 Ti10 2.010390 1_555
N7 Ti11 2.087500 1_555
N7 O6 2.652604 1_555
N8 Ti5 1.974692 1_556
N8 Ti6 1.985669 1_655
N8 Ti15 2.082118 1_655
N8 Ti14 2.091342 1_656
N8 N9 2.732744 1_555
N9 Ti5 1.999347 1_556
N9 Ti8 2.012569 1_555
N9 Ti9 2.030942 1_555
N9 Ti13 2.064429 1_555
N10 Ti12 1.995912 1_555
N10 Ti7 2.016485 1_545
N10 Ti9 2.030350 1_555
N10 Ti13 2.063519 1_555
N10 N12 2.683846 1_555
N11 Ti10 1.998606 1_555
N11 Ti11 1.999161 1_555
N11 Ti8 2.062142 1_555
N11 Ti2 2.073112 1_565
N11 N13 2.704060 1_555
N12 Ti6 1.958060 1_555
N12 Ti13 2.029853 1_555
N12 Ti15 2.070769 1_555
N12 Ti4 2.077258 1_455
N13 Ti1 1.976406 1_565
N13 Ti2 1.989716 1_565
N13 Ti0 2.012115 1_566
N13 Ti5 2.103529 1_556
N14 Ti13 2.010265 1_555
N14 Ti15 2.021121 1_555
N14 Ti11 2.026615 1_555
N14 Ti1 2.089471 1_565
N14 N15 2.727075 1_555
N15 Ti7 1.980264 1_555
N15 Ti14 1.993308 1_555
N15 Ti11 1.999116 1_555
N15 Ti9 2.083065 1_565
O0 Ti4 2.014536 1_555
O0 Ti7 2.099437 1_645
O0 Ti2 2.108021 1_555
O0 Ti10 2.127705 1_545
O1 Ti0 2.061108 1_555
O1 Ti11 2.071917 1_655
O1 Ti3 2.100447 1_555
O1 Ti6 2.165984 1_654
O2 Ti15 2.022704 1_544
O2 Ti14 2.091134 1_545
O2 Ti12 2.103939 1_554
O2 Ti1 2.105116 1_554
O3 Ti0 1.973797 1_455
O3 Ti5 2.114454 1_445
O3 Ti7 2.136434 1_545
O3 Ti14 2.142228 1_545
O3 O7 2.636347 1_555
O4 Ti2 2.067020 1_555
O4 Ti9 2.084995 1_555
O4 Ti6 2.100105 1_655
O4 Ti4 2.130631 1_555
O5 Ti8 2.036046 1_555
O5 Ti15 2.044341 1_655
O5 Ti4 2.045442 1_555
O5 Ti3 2.171992 1_555
O6 Ti13 2.003691 1_554
O6 Ti10 2.105413 1_555
O6 Ti5 2.125345 1_555
O6 Ti1 2.126206 1_564
O7 Ti8 2.026578 1_555
O7 Ti0 2.070656 1_455
O7 Ti13 2.094693 1_555
O7 Ti11 2.112914 1_555
