# generated using pymatgen
data_Ba3Y4O9
_symmetry_space_group_name_H-M   'P 1'
_cell_length_a   9.27691127
_cell_length_b   9.27691127
_cell_length_c   9.27691131
_cell_angle_alpha   38.78605007
_cell_angle_beta   38.78605007
_cell_angle_gamma   38.78604863
_symmetry_Int_Tables_number   1
_chemical_formula_structural   Ba3Y4O9
_chemical_formula_sum   'Ba3 Y4 O9'
_cell_volume   281.62488764
_cell_formula_units_Z   1
loop_
 _symmetry_equiv_pos_site_id
 _symmetry_equiv_pos_as_xyz
  1  'x, y, z'
loop_
 _atom_site_type_symbol
 _atom_site_label
 _atom_site_symmetry_multiplicity
 _atom_site_fract_x
 _atom_site_fract_y
 _atom_site_fract_z
 _atom_site_occupancy
  Ba  Ba0  1  0.40821200  0.41783600  0.41944400  1
  Ba  Ba1  1  0.84370200  0.83546500  0.82835500  1
  Ba  Ba2  1  0.99891500  0.01075000  0.99850300  1
  Y  Y0  1  0.69716700  0.70610600  0.69412700  1
  Y  Y1  1  0.25450200  0.27049700  0.26281700  1
  Y  Y2  1  0.14455400  0.12890000  0.13566000  1
  Y  Y3  1  0.58429700  0.57057300  0.57036300  1
  O  O0  1  0.41966200  0.55174600  0.95320800  1
  O  O1  1  0.95215600  0.42447600  0.54822900  1
  O  O2  1  0.55342800  0.95921400  0.41447800  1
  O  O3  1  0.29217500  0.41179300  0.88496000  1
  O  O4  1  0.88629100  0.28436000  0.42006500  1
  O  O5  1  0.41596800  0.88307100  0.28536500  1
  O  O6  1  0.42092000  0.98247800  0.84752400  1
  O  O7  1  0.99048400  0.85689600  0.41042700  1
  O  O8  1  0.85196700  0.42708600  0.97959400  1
loop_
_geom_bond_atom_site_label_1
_geom_bond_atom_site_label_2
_geom_bond_distance
_geom_bond_site_symmetry_2
Ba0 O7 2.642255 1_455
Ba0 O6 2.660746 1_545
Ba0 O8 2.724281 1_554
Ba0 O1 3.340526 1_455
Ba0 O2 3.345428 1_545
Ba0 O0 3.372690 1_554
Ba0 O8 3.440848 1_455
Ba0 O5 3.486423 1_555
Ba0 O3 3.504441 1_555
Ba0 O4 3.559574 1_555
Ba1 O4 2.736111 1_565
Ba1 O3 2.780038 1_655
Ba1 O8 2.784845 1_555
Ba1 O5 2.806262 1_556
Ba1 O7 2.813434 1_555
Ba1 O6 2.868144 1_555
Ba1 O5 3.499943 1_655
Ba1 O3 3.547012 1_565
Ba1 O4 3.592601 1_556
Ba2 O2 2.746089 1_546
Ba2 O1 2.757348 1_555
Ba2 O6 2.789372 1_645
Ba2 O7 2.802016 1_546
Ba2 O0 2.804457 1_645
Ba2 O8 2.813332 1_555
O0 Y1 2.256839 1_556
O0 Y0 2.278189 1_555
O0 Y3 2.443241 1_555
O0 O3 2.885822 1_555
O1 Y1 2.233949 1_655
O1 Y0 2.267180 1_555
O1 Y3 2.378181 1_555
O1 O4 2.873451 1_555
O2 Y0 2.244337 1_555
O2 Y1 2.296278 1_565
O2 Y3 2.465730 1_555
O2 O5 2.943508 1_555
O3 Y3 2.285264 1_555
O3 Y2 2.300876 1_556
O3 Y1 2.401854 1_556
O4 Y3 2.219881 1_555
O4 Y2 2.339187 1_655
O4 Y1 2.377378 1_655
O5 Y2 2.243072 1_565
O5 Y3 2.294082 1_555
O5 Y1 2.475595 1_565
O6 Y0 2.219316 1_555
O6 Y2 2.260664 1_566
O7 Y2 2.196147 1_665
O7 Y0 2.306014 1_555
O8 Y0 2.285362 1_555
O8 Y2 2.300647 1_656
