# generated using pymatgen
data_Tm2TiO5
_symmetry_space_group_name_H-M   'P 1'
_cell_length_a   5.80540559
_cell_length_b   5.80540559
_cell_length_c   10.42510900
_cell_angle_alpha   90.00000000
_cell_angle_beta   90.00000000
_cell_angle_gamma   139.13475284
_symmetry_Int_Tables_number   1
_chemical_formula_structural   Tm2TiO5
_chemical_formula_sum   'Tm4 Ti2 O10'
_cell_volume   229.88512062
_cell_formula_units_Z   2
loop_
 _symmetry_equiv_pos_site_id
 _symmetry_equiv_pos_as_xyz
  1  'x, y, z'
loop_
 _atom_site_type_symbol
 _atom_site_label
 _atom_site_symmetry_multiplicity
 _atom_site_fract_x
 _atom_site_fract_y
 _atom_site_fract_z
 _atom_site_occupancy
  Tm  Tm0  1  0.14278100  0.85721900  0.93111500  1
  Tm  Tm1  1  0.14278100  0.85721900  0.56888500  1
  Tm  Tm2  1  0.85721900  0.14278100  0.06888500  1
  Tm  Tm3  1  0.85721900  0.14278100  0.43111500  1
  Ti  Ti0  1  0.17356200  0.82643800  0.25000000  1
  Ti  Ti1  1  0.82643800  0.17356200  0.75000000  1
  O  O0  1  0.05110500  0.94889500  0.37688400  1
  O  O1  1  0.05110500  0.94889500  0.12311600  1
  O  O2  1  0.70761000  0.29239000  0.91028300  1
  O  O3  1  0.70761000  0.29239000  0.58971700  1
  O  O4  1  0.27071800  0.72928200  0.75000000  1
  O  O5  1  0.72928200  0.27071800  0.25000000  1
  O  O6  1  0.29239000  0.70761000  0.08971700  1
  O  O7  1  0.29239000  0.70761000  0.41028300  1
  O  O8  1  0.94889500  0.05110500  0.62311600  1
  O  O9  1  0.94889500  0.05110500  0.87688400  1
loop_
_geom_bond_atom_site_label_1
_geom_bond_atom_site_label_2
_geom_bond_distance
_geom_bond_site_symmetry_2
O0 Ti0 1.877486 1_555
O0 Tm3 2.183984 1_465
O0 Tm1 2.236394 1_555
O1 Ti0 1.877486 1_555
O1 Tm2 2.183984 1_465
O1 Tm0 2.236394 1_554
O2 Ti1 2.112743 1_555
O2 Tm0 2.156898 1_655
O2 Tm0 2.156898 1_545
O2 Tm2 2.320253 1_556
O2 O4 2.714979 1_655
O2 O4 2.714979 1_545
O3 Ti1 2.112743 1_555
O3 Tm1 2.156898 1_655
O3 Tm1 2.156898 1_545
O3 Tm3 2.320253 1_555
O3 O4 2.714979 1_655
O3 O4 2.714979 1_545
O4 Ti1 2.115432 1_565
O4 Ti1 2.115432 1_455
O4 Tm0 2.345790 1_555
O4 Tm1 2.345790 1_555
O5 Ti0 2.115432 1_655
O5 Ti0 2.115432 1_545
O5 Tm3 2.345790 1_555
O5 Tm2 2.345790 1_555
O5 O7 2.714979 1_545
O5 O7 2.714979 1_655
O5 O6 2.714979 1_545
O5 O6 2.714979 1_655
O6 Ti0 2.112743 1_555
O6 Tm2 2.156898 1_565
O6 Tm2 2.156898 1_455
O6 Tm0 2.320253 1_554
O7 Ti0 2.112743 1_555
O7 Tm3 2.156898 1_455
O7 Tm3 2.156898 1_565
O7 Tm1 2.320253 1_555
O8 Ti1 1.877486 1_555
O8 Tm1 2.183984 1_645
O8 Tm3 2.236394 1_555
O9 Ti1 1.877486 1_555
O9 Tm0 2.183984 1_645
O9 Tm2 2.236394 1_556
