# generated using pymatgen
data_Li4H3BrO3
_symmetry_space_group_name_H-M   'P 1'
_cell_length_a   7.73056300
_cell_length_b   5.54069300
_cell_length_c   6.62468277
_cell_angle_alpha   85.97757494
_cell_angle_beta   90.00000000
_cell_angle_gamma   90.00000000
_symmetry_Int_Tables_number   1
_chemical_formula_structural   Li4H3BrO3
_chemical_formula_sum   'Li8 H6 Br2 O6'
_cell_volume   283.05391609
_cell_formula_units_Z   2
loop_
 _symmetry_equiv_pos_site_id
 _symmetry_equiv_pos_as_xyz
  1  'x, y, z'
loop_
 _atom_site_type_symbol
 _atom_site_label
 _atom_site_symmetry_multiplicity
 _atom_site_fract_x
 _atom_site_fract_y
 _atom_site_fract_z
 _atom_site_occupancy
  Li  Li0  1  0.75000000  0.92243600  0.91909700  1
  Li  Li1  1  0.47837500  0.64921700  0.13224200  1
  Li  Li2  1  0.02162500  0.64921700  0.13224200  1
  Li  Li3  1  0.75000000  0.59809800  0.69324900  1
  Li  Li4  1  0.25000000  0.40190200  0.30675100  1
  Li  Li5  1  0.97837500  0.35078300  0.86775800  1
  Li  Li6  1  0.52162500  0.35078300  0.86775800  1
  Li  Li7  1  0.25000000  0.07756400  0.08090300  1
  H  H0  1  0.47154800  0.79886300  0.77647000  1
  H  H1  1  0.02845200  0.79886300  0.77647000  1
  H  H2  1  0.25000000  0.82463800  0.35897800  1
  H  H3  1  0.75000000  0.17536200  0.64102200  1
  H  H4  1  0.97154800  0.20113700  0.22353000  1
  H  H5  1  0.52845200  0.20113700  0.22353000  1
  Br  Br0  1  0.75000000  0.82764700  0.33163900  1
  Br  Br1  1  0.25000000  0.17235300  0.66836100  1
  O  O0  1  0.94197400  0.70674700  0.85462600  1
  O  O1  1  0.55802600  0.70674700  0.85462600  1
  O  O2  1  0.25000000  0.75336100  0.22722100  1
  O  O3  1  0.75000000  0.24663900  0.77277900  1
  O  O4  1  0.44197400  0.29325300  0.14537400  1
  O  O5  1  0.05802600  0.29325300  0.14537400  1
loop_
_geom_bond_atom_site_label_1
_geom_bond_atom_site_label_2
_geom_bond_distance
_geom_bond_site_symmetry_2
Li0 O1 1.970954 1_555
Li0 O0 1.970954 1_555
Li0 O3 1.980407 1_565
Li0 Li3 2.417675 1_555
Li1 O1 1.944443 1_554
Li1 O2 1.974000 1_555
Li1 O4 1.988115 1_555
Li1 Li4 2.471605 1_555
Li2 O0 1.944443 1_454
Li2 O2 1.974000 1_555
Li2 O5 1.988115 1_555
Li2 Li4 2.471605 1_555
Li3 O1 1.948859 1_555
Li3 O0 1.948859 1_555
Li3 O3 1.981344 1_555
Li3 Li6 2.471605 1_555
Li3 Li5 2.471605 1_555
Li4 O4 1.948859 1_555
Li4 O5 1.948859 1_555
Li4 O2 1.981344 1_555
Li4 Li7 2.417675 1_555
Li5 O5 1.944443 1_656
Li5 O3 1.974000 1_555
Li5 O0 1.988115 1_555
Li6 O4 1.944443 1_556
Li6 O3 1.974000 1_555
Li6 O1 1.988115 1_555
Li7 O4 1.970954 1_555
Li7 O5 1.970954 1_555
Li7 O2 1.980407 1_545
H0 O1 0.968720 1_555
H1 O0 0.968720 1_455
H2 O2 0.982949 1_555
H2 Li7 2.235006 1_565
H2 Li4 2.391555 1_555
H3 O3 0.982949 1_555
H3 Li0 2.235006 1_545
H3 Li3 2.391555 1_555
H4 O5 0.968720 1_655
H5 O4 0.968720 1_555
Br0 Li3 2.632271 1_555
Br0 Li2 2.704570 1_655
Br0 Li1 2.704570 1_555
Br0 H4 2.742389 1_565
Br0 H5 2.742389 1_565
Br0 Li0 2.746549 1_554
Br0 H3 2.909709 1_565
Br1 Li4 2.632271 1_555
Br1 Li5 2.704570 1_455
Br1 Li6 2.704570 1_555
Br1 H0 2.742389 1_545
Br1 H1 2.742389 1_545
Br1 Li7 2.746549 1_556
Br1 H2 2.909709 1_545
