# generated using pymatgen
data_V3O8
_symmetry_space_group_name_H-M   'P 1'
_cell_length_a   2.87612300
_cell_length_b   9.83168698
_cell_length_c   10.27414165
_cell_angle_alpha   101.92355044
_cell_angle_beta   89.90482804
_cell_angle_gamma   98.40486229
_symmetry_Int_Tables_number   1
_chemical_formula_structural   V3O8
_chemical_formula_sum   'V6 O16'
_cell_volume   281.07989318
_cell_formula_units_Z   2
loop_
 _symmetry_equiv_pos_site_id
 _symmetry_equiv_pos_as_xyz
  1  'x, y, z'
loop_
 _atom_site_type_symbol
 _atom_site_label
 _atom_site_symmetry_multiplicity
 _atom_site_fract_x
 _atom_site_fract_y
 _atom_site_fract_z
 _atom_site_occupancy
  V  V0  1  0.17600200  0.34786700  0.66821600  1
  V  V1  1  0.17255600  0.34934000  0.16967000  1
  V  V2  1  0.81930500  0.64986400  0.82760200  1
  V  V3  1  0.83058500  0.65123300  0.33087000  1
  V  V4  1  0.08145700  0.99938000  0.74923800  1
  V  V5  1  0.91645200  0.00035300  0.25048200  1
  O  O0  1  0.45014500  0.94889800  0.62567900  1
  O  O1  1  0.50113800  0.94782900  0.12680800  1
  O  O2  1  0.49683500  0.05035400  0.87313900  1
  O  O3  1  0.54845200  0.05258200  0.37364900  1
  O  O4  1  0.08956300  0.18950300  0.71245600  1
  O  O5  1  0.09842200  0.18970500  0.21150700  1
  O  O6  1  0.89541400  0.80926600  0.78516500  1
  O  O7  1  0.91322200  0.81102000  0.28931500  1
  O  O8  1  0.66494400  0.33350300  0.55625500  1
  O  O9  1  0.66938200  0.33664700  0.05789100  1
  O  O10  1  0.32382100  0.66313000  0.93935800  1
  O  O11  1  0.33648400  0.66390200  0.44271500  1
  O  O12  1  0.27572200  0.56900700  0.69509300  1
  O  O13  1  0.29139600  0.57076700  0.19835500  1
  O  O14  1  0.71160000  0.42936100  0.80015900  1
  O  O15  1  0.71221700  0.42985700  0.30225900  1
loop_
_geom_bond_atom_site_label_1
_geom_bond_atom_site_label_2
_geom_bond_distance
_geom_bond_site_symmetry_2
O0 V4 1.694502 1_555
O0 V4 2.153743 1_655
O1 V5 1.691629 1_565
O1 V5 2.164419 1_465
O2 V4 1.692718 1_545
O2 V4 2.162060 1_645
O3 V5 1.694454 1_555
O3 V5 2.152986 1_455
O4 V0 1.694550 1_555
O4 V4 1.979014 1_545
O5 V1 1.695325 1_555
O5 V5 1.980534 1_455
O6 V2 1.695832 1_555
O6 V4 1.976944 1_655
O7 V3 1.695403 1_555
O7 V5 1.981446 1_565
O8 V0 1.818312 1_555
O8 V0 1.838873 1_655
O9 V1 1.822728 1_655
O9 V1 1.834061 1_555
O10 V2 1.824621 1_455
O10 V2 1.831180 1_555
O10 O14 2.809855 1_455
O10 O14 2.820893 1_555
O11 V3 1.828294 1_555
O11 V3 1.829346 1_455
O11 O15 2.809762 1_555
O11 O15 2.833680 1_455
O12 V2 2.015080 1_455
O12 V2 2.031307 1_555
O12 V0 2.110795 1_555
O12 O14 2.374465 1_455
O12 O14 2.396230 1_555
O12 O6 2.735189 1_455
O12 O6 2.735733 1_555
O12 O8 2.817135 1_455
O12 O8 2.834899 1_555
O13 V3 2.021803 1_555
O13 V3 2.022743 1_455
O13 V1 2.112040 1_555
O13 O15 2.372632 1_555
O13 O15 2.400900 1_455
O13 O7 2.733388 1_455
O13 O7 2.740406 1_555
O13 O9 2.813625 1_555
O13 O9 2.830825 1_455
O14 V0 2.012438 1_555
O14 V0 2.030191 1_655
O14 V2 2.103975 1_555
O14 O4 2.724502 1_655
O14 O4 2.732721 1_555
O15 V1 2.022402 1_655
O15 V1 2.023290 1_555
O15 V3 2.111590 1_555
O15 O5 2.727253 1_555
O15 O5 2.744365 1_655
