# generated using pymatgen
data_Li4MnO2F3
_symmetry_space_group_name_H-M   'P 1'
_cell_length_a   6.85025206
_cell_length_b   7.68513735
_cell_length_c   7.78869035
_cell_angle_alpha   85.91131220
_cell_angle_beta   88.36596273
_cell_angle_gamma   64.32106055
_symmetry_Int_Tables_number   1
_chemical_formula_structural   Li4MnO2F3
_chemical_formula_sum   'Li16 Mn4 O8 F12'
_cell_volume   368.59807762
_cell_formula_units_Z   4
loop_
 _symmetry_equiv_pos_site_id
 _symmetry_equiv_pos_as_xyz
  1  'x, y, z'
loop_
 _atom_site_type_symbol
 _atom_site_label
 _atom_site_symmetry_multiplicity
 _atom_site_fract_x
 _atom_site_fract_y
 _atom_site_fract_z
 _atom_site_occupancy
  Li  Li0  1  0.49999400  0.50000800  0.99999600  1
  Li  Li1  1  0.00000500  0.49999300  0.50000400  1
  Li  Li2  1  0.25000100  0.00000000  0.24999800  1
  Li  Li3  1  0.75000200  0.99999800  0.74999900  1
  Li  Li4  1  0.69319600  0.68155400  0.19787000  1
  Li  Li5  1  0.19320300  0.68155800  0.69787900  1
  Li  Li6  1  0.30679700  0.31843900  0.80212000  1
  Li  Li7  1  0.80680600  0.31844500  0.30213200  1
  Li  Li8  1  0.40227900  0.90967000  0.89176100  1
  Li  Li9  1  0.90229000  0.90967100  0.39177000  1
  Li  Li10  1  0.59771200  0.09032400  0.10823000  1
  Li  Li11  1  0.09772100  0.09033000  0.60824100  1
  Li  Li12  1  0.13078300  0.40864400  0.13425500  1
  Li  Li13  1  0.63078300  0.40865700  0.63426000  1
  Li  Li14  1  0.86921900  0.59134300  0.86573800  1
  Li  Li15  1  0.36922000  0.59135400  0.36574500  1
  Mn  Mn0  1  0.44228400  0.20008100  0.46123900  1
  Mn  Mn1  1  0.05772400  0.79991600  0.03875900  1
  Mn  Mn2  1  0.94224300  0.20005900  0.96128500  1
  Mn  Mn3  1  0.55773700  0.79994800  0.53871700  1
  O  O0  1  0.56577000  0.96040000  0.34000600  1
  O  O1  1  0.06574100  0.96038400  0.84007600  1
  O  O2  1  0.43425400  0.03962500  0.65992200  1
  O  O3  1  0.93422700  0.03960200  0.15999500  1
  O  O4  1  0.82628500  0.43341500  0.06773400  1
  O  O5  1  0.32629400  0.43341200  0.56770700  1
  O  O6  1  0.17370800  0.56658700  0.93229100  1
  O  O7  1  0.67370700  0.56659300  0.43227100  1
  F  F0  1  0.61524600  0.25188800  0.87192100  1
  F  F1  1  0.11525200  0.25189000  0.37191200  1
  F  F2  1  0.38475000  0.74810600  0.12808900  1
  F  F3  1  0.88475700  0.74811100  0.62807900  1
  F  F4  1  0.02753800  0.65913500  0.26296800  1
  F  F5  1  0.52753500  0.65915400  0.76294200  1
  F  F6  1  0.97246400  0.34084800  0.73706000  1
  F  F7  1  0.47246800  0.34086200  0.23702800  1
  F  F8  1  0.71232700  0.85023600  0.97391600  1
  F  F9  1  0.21232700  0.85023700  0.47391400  1
  F  F10  1  0.28767300  0.14976100  0.02608700  1
  F  F11  1  0.78767600  0.14976200  0.52608300  1
loop_
_geom_bond_atom_site_label_1
_geom_bond_atom_site_label_2
_geom_bond_distance
_geom_bond_site_symmetry_2
Li0 O6 2.138535 1_555
Li0 O4 2.138610 1_556
Li1 O5 2.138547 1_555
Li1 O7 2.138633 1_455
Li2 O0 2.179131 1_545
Li2 O3 2.179145 1_455
Li3 O1 2.179087 1_655
Li3 O2 2.179113 1_565
Li4 O7 1.997445 1_555
Li4 O4 2.052147 1_555
Li4 O0 2.289513 1_555
Li5 O6 1.997561 1_555
Li5 O5 2.052343 1_555
Li5 O1 2.289636 1_555
Li6 O5 1.997577 1_555
Li6 O6 2.052350 1_555
Li6 O2 2.289567 1_555
Li7 O4 1.997437 1_555
Li7 O7 2.052215 1_555
Li7 O3 2.289500 1_555
Li8 O2 2.053270 1_565
Li8 O1 2.209196 1_555
Li9 O3 2.052687 1_565
Li9 O0 2.209165 1_555
Li10 O0 2.052679 1_545
Li10 O3 2.209149 1_555
Li11 O1 2.053221 1_545
Li11 O2 2.209176 1_555
Li12 O6 2.011197 1_554
Li12 O4 2.087831 1_455
Li13 O7 2.011305 1_555
Li13 O5 2.087883 1_555
Li14 O4 2.011334 1_556
Li14 O6 2.087881 1_655
Li15 O5 2.011184 1_555
Li15 O7 2.087797 1_555
Mn0 O5 1.863904 1_555
Mn0 O2 1.923574 1_555
Mn0 O0 1.962690 1_545
Mn1 O6 1.863892 1_554
Mn1 O1 1.923604 1_554
Mn1 O3 1.962733 1_465
Mn2 O4 1.863986 1_556
Mn2 O3 1.923711 1_556
Mn2 O1 1.962554 1_645
Mn3 O7 1.863968 1_555
Mn3 O0 1.923727 1_555
Mn3 O2 1.962548 1_565
F0 Li6 2.027562 1_555
F0 Li3 2.040764 1_545
F0 Li0 2.043536 1_555
F0 Li13 2.161290 1_555
F0 Li10 2.175876 1_556
F0 Mn2 2.221912 1_555
F1 Li7 2.027490 1_455
F1 Li2 2.040730 1_555
F1 Li1 2.043505 1_555
F1 Li12 2.161194 1_555
F1 Li11 2.175979 1_555
F1 Mn0 2.222085 1_555
F2 Li4 2.027497 1_555
F2 Li2 2.040734 1_565
F2 Li0 2.043479 1_554
F2 Li15 2.161178 1_555
F2 Li8 2.175986 1_554
F2 Mn1 2.222052 1_555
F3 Li5 2.027537 1_655
F3 Li3 2.040737 1_555
F3 Li1 2.043525 1_655
F3 Li14 2.161275 1_555
F3 Li9 2.175858 1_555
F3 Mn3 2.222038 1_555
F4 Mn1 2.041257 1_555
F4 Li9 2.060192 1_455
F4 Li12 2.065402 1_555
F4 Li1 2.190410 1_555
F4 Li4 2.290009 1_455
F4 Li15 2.319767 1_555
F5 Mn3 2.041443 1_555
F5 Li8 2.060143 1_555
F5 Li13 2.065307 1_555
F5 Li0 2.190555 1_555
F5 Li5 2.289919 1_555
F5 Li14 2.319778 1_555
F6 Mn2 2.041463 1_555
F6 Li11 2.060155 1_655
F6 Li14 2.065279 1_555
F6 Li1 2.190563 1_655
F6 Li6 2.289905 1_655
F6 Li13 2.319774 1_555
F7 Mn0 2.041265 1_555
F7 Li10 2.060188 1_555
F7 Li15 2.065423 1_555
F7 Li0 2.190386 1_554
F7 Li7 2.290000 1_555
F7 Li12 2.319773 1_555
F8 Li10 2.021923 1_566
F8 Li14 2.039073 1_555
F8 Li8 2.079455 1_555
F8 Li3 2.092463 1_555
F8 Li4 2.133551 1_556
F8 Mn1 2.291322 1_656
F9 Li11 2.022012 1_565
F9 Li15 2.038981 1_555
F9 Li9 2.079357 1_455
F9 Li2 2.092459 1_565
F9 Li5 2.133590 1_555
F9 Mn3 2.291404 1_555
F10 Li8 2.021996 1_544
F10 Li12 2.038976 1_555
F10 Li10 2.079361 1_555
F10 Li2 2.092415 1_555
F10 Li6 2.133597 1_554
F10 Mn2 2.291514 1_454
F11 Li9 2.021937 1_545
F11 Li13 2.039082 1_555
F11 Li11 2.079447 1_655
F11 Li3 2.092463 1_545
F11 Li7 2.133535 1_555
F11 Mn0 2.291293 1_555
