# generated using pymatgen
data_Li4Bi3O8
_symmetry_space_group_name_H-M   'P 1'
_cell_length_a   4.25213500
_cell_length_b   6.56055500
_cell_length_c   14.07296040
_cell_angle_alpha   89.19400726
_cell_angle_beta   90.00000000
_cell_angle_gamma   90.00000000
_symmetry_Int_Tables_number   1
_chemical_formula_structural   Li4Bi3O8
_chemical_formula_sum   'Li8 Bi6 O16'
_cell_volume   392.54560458
_cell_formula_units_Z   2
loop_
 _symmetry_equiv_pos_site_id
 _symmetry_equiv_pos_as_xyz
  1  'x, y, z'
loop_
 _atom_site_type_symbol
 _atom_site_label
 _atom_site_symmetry_multiplicity
 _atom_site_fract_x
 _atom_site_fract_y
 _atom_site_fract_z
 _atom_site_occupancy
  Li  Li0  1  0.25000000  0.79921300  0.39528900  1
  Li  Li1  1  0.25000000  0.96550800  0.67600300  1
  Li  Li2  1  0.75000000  0.38814800  0.04082300  1
  Li  Li3  1  0.75000000  0.58906300  0.31730000  1
  Li  Li4  1  0.25000000  0.41093700  0.68270000  1
  Li  Li5  1  0.25000000  0.61185200  0.95917700  1
  Li  Li6  1  0.75000000  0.03449200  0.32399700  1
  Li  Li7  1  0.75000000  0.20078700  0.60471100  1
  Bi  Bi0  1  0.75000000  0.84519800  0.08559000  1
  Bi  Bi1  1  0.75000000  0.68697600  0.55148200  1
  Bi  Bi2  1  0.75000000  0.68927000  0.80607600  1
  Bi  Bi3  1  0.25000000  0.31073000  0.19392400  1
  Bi  Bi4  1  0.25000000  0.31302400  0.44851800  1
  Bi  Bi5  1  0.25000000  0.15480200  0.91441000  1
  O  O0  1  0.25000000  0.89500300  0.04855700  1
  O  O1  1  0.75000000  0.56722800  0.17454700  1
  O  O2  1  0.75000000  0.81228100  0.41478300  1
  O  O3  1  0.75000000  0.91416900  0.65494800  1
  O  O4  1  0.25000000  0.87986200  0.81286100  1
  O  O5  1  0.25000000  0.52548300  0.33175000  1
  O  O6  1  0.25000000  0.63045700  0.53374300  1
  O  O7  1  0.25000000  0.36106700  0.03576700  1
  O  O8  1  0.75000000  0.63893300  0.96423300  1
  O  O9  1  0.75000000  0.36954300  0.46625700  1
  O  O10  1  0.75000000  0.47451700  0.66825000  1
  O  O11  1  0.75000000  0.12013800  0.18713900  1
  O  O12  1  0.25000000  0.08583100  0.34505200  1
  O  O13  1  0.25000000  0.18771900  0.58521700  1
  O  O14  1  0.25000000  0.43277200  0.82545300  1
  O  O15  1  0.75000000  0.10499700  0.95144300  1
loop_
_geom_bond_atom_site_label_1
_geom_bond_atom_site_label_2
_geom_bond_distance
_geom_bond_site_symmetry_2
Li0 O12 1.999557 1_565
Li0 O5 2.017352 1_555
Li0 O2 2.145562 1_555
Li0 O2 2.145562 1_455
Li0 O6 2.227452 1_555
Li1 O13 1.924888 1_565
Li1 O4 1.998683 1_555
Li1 O3 2.173525 1_555
Li1 O3 2.173525 1_455
Li1 O6 2.993931 1_555
Li2 O8 1.954185 1_554
Li2 O7 2.134747 1_655
Li2 O7 2.134747 1_555
Li2 O1 2.232494 1_555
Li2 O15 2.258026 1_554
Li2 O11 2.688797 1_555
Li3 O1 2.016067 1_555
Li3 O2 2.020675 1_555
Li3 O5 2.175573 1_655
Li3 O5 2.175573 1_555
Li3 O9 2.526558 1_555
Li4 O14 2.016067 1_555
Li4 O13 2.020675 1_555
Li4 O10 2.175573 1_455
Li4 O10 2.175573 1_555
Li4 O6 2.526558 1_555
Li5 O7 1.954185 1_556
Li5 O8 2.134747 1_455
Li5 O8 2.134747 1_555
Li5 O14 2.232494 1_555
Li5 O0 2.258026 1_556
Li5 O4 2.688797 1_555
Li6 O2 1.924888 1_545
Li6 O11 1.998683 1_555
Li6 O12 2.173525 1_555
Li6 O12 2.173525 1_655
Li6 O9 2.993931 1_555
Li7 O3 1.999557 1_545
Li7 O10 2.017352 1_555
Li7 O13 2.145562 1_555
Li7 O13 2.145562 1_655
Li7 O9 2.227452 1_555
Bi0 O8 2.193847 1_554
Bi0 O1 2.197419 1_555
Bi0 O0 2.212182 1_555
Bi0 O0 2.212182 1_655
Bi0 O11 2.316977 1_565
Bi0 O15 2.525570 1_564
Bi1 O2 2.081384 1_555
Bi1 O3 2.098293 1_555
Bi1 O10 2.139794 1_555
Bi1 O6 2.173149 1_655
Bi1 O6 2.173149 1_555
Bi1 O9 2.417791 1_555
Bi2 O8 2.245503 1_555
Bi2 O10 2.413297 1_555
Bi2 O4 2.469031 1_655
Bi2 O4 2.469031 1_555
Bi2 O3 2.571393 1_555
Bi2 O14 2.722742 1_655
Bi2 O14 2.722742 1_555
Bi3 O7 2.245503 1_555
Bi3 O5 2.413297 1_555
Bi3 O11 2.469031 1_555
Bi3 O11 2.469031 1_455
Bi3 O12 2.571393 1_555
Bi3 O1 2.722742 1_555
Bi3 O1 2.722742 1_455
Bi4 O13 2.081384 1_555
Bi4 O12 2.098293 1_555
Bi4 O5 2.139794 1_555
Bi4 O9 2.173149 1_555
Bi4 O9 2.173149 1_455
Bi4 O6 2.417791 1_555
Bi5 O7 2.193847 1_556
Bi5 O14 2.197419 1_555
Bi5 O15 2.212182 1_455
Bi5 O15 2.212182 1_555
Bi5 O4 2.316977 1_545
Bi5 O0 2.525570 1_546
O0 O15 2.869321 1_564
O0 O15 2.869321 1_464
O0 O7 3.060403 1_565
O15 O8 3.060403 1_545
