# generated using pymatgen
data_Li4Cr3NiO8
_symmetry_space_group_name_H-M   'P 1'
_cell_length_a   5.11808800
_cell_length_b   7.78612342
_cell_length_c   7.79531720
_cell_angle_alpha   81.96622472
_cell_angle_beta   83.78186574
_cell_angle_gamma   71.10924003
_symmetry_Int_Tables_number   1
_chemical_formula_structural   Li4Cr3NiO8
_chemical_formula_sum   'Li8 Cr6 Ni2 O16'
_cell_volume   290.36722486
_cell_formula_units_Z   2
loop_
 _symmetry_equiv_pos_site_id
 _symmetry_equiv_pos_as_xyz
  1  'x, y, z'
loop_
 _atom_site_type_symbol
 _atom_site_label
 _atom_site_symmetry_multiplicity
 _atom_site_fract_x
 _atom_site_fract_y
 _atom_site_fract_z
 _atom_site_occupancy
  Li  Li0  1  0.99686400  0.56447900  0.81500200  1
  Li  Li1  1  0.00082100  0.31084300  0.56425200  1
  Li  Li2  1  0.00313600  0.43552100  0.18499800  1
  Li  Li3  1  0.00025100  0.93708100  0.69064500  1
  Li  Li4  1  0.99974900  0.06291900  0.30935500  1
  Li  Li5  1  0.00512100  0.18459800  0.94046000  1
  Li  Li6  1  0.99917900  0.68915700  0.43574800  1
  Li  Li7  1  0.99487900  0.81540200  0.05954000  1
  Cr  Cr0  1  0.49808100  0.24669900  0.75411500  1
  Cr  Cr1  1  0.49996200  0.37421900  0.37425400  1
  Cr  Cr2  1  0.50000000  0.50000000  0.00000000  1
  Cr  Cr3  1  0.50000000  0.00000000  0.50000000  1
  Cr  Cr4  1  0.50003800  0.62578100  0.62574600  1
  Cr  Cr5  1  0.50191900  0.75330100  0.24588500  1
  Ni  Ni0  1  0.50039100  0.12524200  0.12543300  1
  Ni  Ni1  1  0.49960900  0.87475800  0.87456700  1
  O  O0  1  0.72261600  0.41184600  0.78222200  1
  O  O1  1  0.28048000  0.46153900  0.59312500  1
  O  O2  1  0.71952000  0.53846100  0.40687500  1
  O  O3  1  0.26738000  0.09656800  0.71155200  1
  O  O4  1  0.72311200  0.16185500  0.53299400  1
  O  O5  1  0.72639200  0.29055000  0.15611900  1
  O  O6  1  0.27326200  0.21234000  0.34788400  1
  O  O7  1  0.72673800  0.78766000  0.65211600  1
  O  O8  1  0.73262000  0.90343200  0.28844800  1
  O  O9  1  0.26845200  0.34575800  0.96087600  1
  O  O10  1  0.27688800  0.83814500  0.46700600  1
  O  O11  1  0.72637500  0.04021000  0.90260900  1
  O  O12  1  0.27362500  0.95979000  0.09739100  1
  O  O13  1  0.73154800  0.65424200  0.03912400  1
  O  O14  1  0.27738400  0.58815400  0.21777800  1
  O  O15  1  0.27360800  0.70945000  0.84388100  1
loop_
_geom_bond_atom_site_label_1
_geom_bond_atom_site_label_2
_geom_bond_distance
_geom_bond_site_symmetry_2
Li0 O9 2.096112 1_655
Li0 O15 2.122812 1_655
Li0 O13 2.144199 1_556
Li0 O0 2.165761 1_555
Li0 O7 2.179723 1_555
Li0 O1 2.198008 1_655
Li1 O3 2.072008 1_555
Li1 O6 2.130009 1_555
Li1 O4 2.155679 1_455
Li1 O0 2.158076 1_455
Li1 O1 2.169593 1_555
Li1 O2 2.200328 1_455
Li2 O13 2.096112 1_455
Li2 O5 2.122812 1_455
Li2 O9 2.144199 1_554
Li2 O14 2.165761 1_555
Li2 O6 2.179723 1_555
Li2 O2 2.198008 1_455
Li3 O11 2.116618 1_465
Li3 O3 2.154527 1_565
Li3 O7 2.155615 1_455
Li3 O15 2.165677 1_555
Li3 O4 2.180398 1_465
Li3 O10 2.184420 1_555
Li4 O12 2.116618 1_645
Li4 O8 2.154527 1_545
Li4 O6 2.155615 1_655
Li4 O5 2.165677 1_555
Li4 O10 2.180398 1_645
Li4 O4 2.184420 1_555
Li5 O11 2.146792 1_455
Li5 O9 2.147949 1_555
Li5 O5 2.155899 1_456
Li5 O12 2.157996 1_546
Li5 O3 2.163992 1_555
Li5 O0 2.205124 1_455
Li6 O8 2.072008 1_555
Li6 O7 2.130009 1_555
Li6 O10 2.155679 1_655
Li6 O14 2.158076 1_655
Li6 O2 2.169593 1_555
Li6 O1 2.200328 1_655
Li7 O12 2.146792 1_655
Li7 O13 2.147949 1_555
Li7 O15 2.155899 1_654
Li7 O11 2.157996 1_564
Li7 O8 2.163992 1_555
Li7 O14 2.205124 1_655
Cr0 O11 1.961228 1_555
Cr0 O9 1.980929 1_555
Cr0 O3 1.989391 1_555
Cr0 O0 2.027858 1_555
Cr0 O1 2.030544 1_555
Cr0 O4 2.032143 1_555
Cr1 O2 2.011483 1_555
Cr1 O6 2.012005 1_555
Cr1 O1 2.012369 1_555
Cr1 O5 2.013149 1_555
Cr1 O14 2.016083 1_555
Cr1 O4 2.020168 1_555
Cr2 O5 2.002580 1_555
Cr2 O15 2.002580 1_554
Cr2 O13 2.010464 1_555
Cr2 O9 2.010464 1_554
Cr2 O0 2.012853 1_554
Cr2 O14 2.012853 1_555
Cr3 O7 1.998491 1_545
Cr3 O6 1.998491 1_555
Cr3 O8 2.010965 1_545
Cr3 O3 2.010965 1_555
Cr3 O4 2.011049 1_555
Cr3 O10 2.011049 1_545
Cr4 O1 2.011483 1_555
Cr4 O7 2.012005 1_555
Cr4 O2 2.012369 1_555
Cr4 O15 2.013149 1_555
Cr4 O0 2.016083 1_555
Cr4 O10 2.020168 1_555
Cr5 O12 1.961228 1_555
Cr5 O13 1.980929 1_555
Cr5 O8 1.989391 1_555
Cr5 O14 2.027858 1_555
Cr5 O2 2.030544 1_555
Cr5 O10 2.032143 1_555
Ni0 O12 2.038662 1_545
Ni0 O5 2.040059 1_555
Ni0 O11 2.045378 1_554
Ni0 O6 2.049340 1_555
Ni0 O8 2.096365 1_545
Ni0 O9 2.096929 1_554
Ni1 O11 2.038662 1_565
Ni1 O15 2.040059 1_555
Ni1 O12 2.045378 1_556
Ni1 O7 2.049340 1_555
Ni1 O3 2.096365 1_565
Ni1 O13 2.096929 1_556
