# generated using pymatgen
data_Li4VCr3O8
_symmetry_space_group_name_H-M   'P 1'
_cell_length_a   5.13936800
_cell_length_b   5.96145761
_cell_length_c   10.70666425
_cell_angle_alpha   98.10976177
_cell_angle_beta   103.68721318
_cell_angle_gamma   106.91485886
_symmetry_Int_Tables_number   1
_chemical_formula_structural   Li4VCr3O8
_chemical_formula_sum   'Li8 V2 Cr6 O16'
_cell_volume   297.05179989
_cell_formula_units_Z   2
loop_
 _symmetry_equiv_pos_site_id
 _symmetry_equiv_pos_as_xyz
  1  'x, y, z'
loop_
 _atom_site_type_symbol
 _atom_site_label
 _atom_site_symmetry_multiplicity
 _atom_site_fract_x
 _atom_site_fract_y
 _atom_site_fract_z
 _atom_site_occupancy
  Li  Li0  1  0.87199500  0.31108100  0.87512500  1
  Li  Li1  1  0.62785300  0.93896900  0.62500300  1
  Li  Li2  1  0.12800500  0.68891900  0.12487500  1
  Li  Li3  1  0.37214700  0.06103100  0.37499700  1
  Li  Li4  1  0.87456800  0.81303900  0.87530400  1
  Li  Li5  1  0.62561300  0.43688400  0.62460000  1
  Li  Li6  1  0.12543200  0.18696100  0.12469600  1
  Li  Li7  1  0.37438700  0.56311600  0.37540000  1
  V  V0  1  0.24989600  0.62492700  0.74986100  1
  V  V1  1  0.75010400  0.37507300  0.25013900  1
  Cr  Cr0  1  0.25003800  0.12497400  0.75010300  1
  Cr  Cr1  1  0.50000000  0.50000000  0.00000000  1
  Cr  Cr2  1  0.74996200  0.87502600  0.24989700  1
  Cr  Cr3  1  0.00043400  0.24943200  0.50010200  1
  Cr  Cr4  1  0.50000000  0.00000000  0.00000000  1
  Cr  Cr5  1  0.99956600  0.75056800  0.49989800  1
  O  O0  1  0.04138600  0.71596600  0.31436000  1
  O  O1  1  0.45634700  0.53837700  0.18491300  1
  O  O2  1  0.54365300  0.46162300  0.81508700  1
  O  O3  1  0.95861400  0.28403400  0.68564000  1
  O  O4  1  0.71088000  0.91147800  0.43550600  1
  O  O5  1  0.28912000  0.08852200  0.56449400  1
  O  O6  1  0.78883900  0.83885200  0.06391500  1
  O  O7  1  0.20986700  0.66113300  0.93619400  1
  O  O8  1  0.04377900  0.21151800  0.31530500  1
  O  O9  1  0.45867200  0.03426400  0.18541600  1
  O  O10  1  0.54132800  0.96573600  0.81458400  1
  O  O11  1  0.95622100  0.78848200  0.68469500  1
  O  O12  1  0.28982400  0.58924400  0.56319300  1
  O  O13  1  0.79013300  0.33886700  0.06380600  1
  O  O14  1  0.71017600  0.41075600  0.43680700  1
  O  O15  1  0.21116100  0.16114800  0.93608500  1
loop_
_geom_bond_atom_site_label_1
_geom_bond_atom_site_label_2
_geom_bond_distance
_geom_bond_site_symmetry_2
Li0 O2 2.144025 1_555
Li0 O10 2.147782 1_545
Li0 O13 2.152622 1_556
Li0 O3 2.171839 1_555
Li0 O7 2.183279 1_655
Li0 O15 2.190000 1_655
Li1 O11 2.143274 1_555
Li1 O3 2.146830 1_565
Li1 O4 2.163765 1_555
Li1 O10 2.172619 1_555
Li1 O12 2.182138 1_555
Li1 O5 2.185773 1_565
Li2 O1 2.144025 1_555
Li2 O9 2.147782 1_565
Li2 O7 2.152622 1_554
Li2 O0 2.171839 1_555
Li2 O13 2.183279 1_455
Li2 O6 2.190000 1_455
Li3 O8 2.143274 1_555
Li3 O0 2.146830 1_545
Li3 O5 2.163765 1_555
Li3 O9 2.172619 1_555
Li3 O14 2.182138 1_555
Li3 O4 2.185773 1_545
Li4 O6 2.160693 1_556
Li4 O11 2.172346 1_555
Li4 O15 2.172517 1_665
Li4 O2 2.173393 1_555
Li4 O10 2.175242 1_555
Li4 O7 2.181187 1_655
Li5 O14 2.149502 1_555
Li5 O2 2.171750 1_555
Li5 O5 2.173498 1_555
Li5 O11 2.173498 1_555
Li5 O3 2.175433 1_555
Li5 O12 2.186112 1_555
Li6 O15 2.160693 1_554
Li6 O8 2.172346 1_555
Li6 O6 2.172517 1_445
Li6 O1 2.173393 1_555
Li6 O9 2.175242 1_555
Li6 O13 2.181187 1_455
Li7 O12 2.149502 1_555
Li7 O1 2.171750 1_555
Li7 O4 2.173498 1_555
Li7 O8 2.173498 1_555
Li7 O0 2.175433 1_555
Li7 O14 2.186112 1_555
Cr0 O5 2.032042 1_555
Cr0 O11 2.033510 1_445
Cr0 O2 2.033669 1_555
Cr0 O3 2.034838 1_455
Cr0 O10 2.035111 1_545
Cr0 O15 2.035606 1_555
Cr1 O2 2.033362 1_554
Cr1 O1 2.033362 1_555
Cr1 O6 2.033915 1_555
Cr1 O15 2.033915 1_554
Cr1 O13 2.036997 1_555
Cr1 O7 2.036997 1_554
Cr2 O4 2.032042 1_555
Cr2 O8 2.033510 1_665
Cr2 O1 2.033669 1_555
Cr2 O0 2.034838 1_655
Cr2 O9 2.035111 1_565
Cr2 O6 2.035606 1_555
Cr3 O4 2.031514 1_445
Cr3 O8 2.031531 1_555
Cr3 O5 2.031608 1_555
Cr3 O3 2.036452 1_455
Cr3 O14 2.037095 1_455
Cr3 O12 2.038954 1_555
Cr4 O15 2.032083 1_554
Cr4 O6 2.032083 1_545
Cr4 O10 2.034253 1_544
Cr4 O9 2.034253 1_555
Cr4 O7 2.036366 1_544
Cr4 O13 2.036366 1_555
Cr5 O5 2.031514 1_665
Cr5 O11 2.031531 1_555
Cr5 O4 2.031608 1_555
Cr5 O0 2.036452 1_655
Cr5 O12 2.037095 1_655
Cr5 O14 2.038954 1_555
O0 V1 2.047455 1_455
O1 V1 2.064667 1_555
O2 V0 2.064667 1_555
O3 V0 2.047455 1_655
O7 V0 2.041453 1_555
O8 V1 2.065282 1_455
O9 V1 2.047498 1_555
O10 V0 2.047498 1_555
O11 V0 2.065282 1_655
O12 V0 2.044814 1_555
O13 V1 2.041453 1_555
O14 V1 2.044814 1_555
