# generated using pymatgen
data_Li8Mn7Fe(PO4)12
_symmetry_space_group_name_H-M   'P 1'
_cell_length_a   8.57066800
_cell_length_b   8.79515090
_cell_length_c   11.95575625
_cell_angle_alpha   89.78373926
_cell_angle_beta   89.94647460
_cell_angle_gamma   89.82740527
_symmetry_Int_Tables_number   1
_chemical_formula_structural   Li8Mn7Fe(PO4)12
_chemical_formula_sum   'Li8 Mn7 Fe1 P12 O48'
_cell_volume   901.21782098
_cell_formula_units_Z   1
loop_
 _symmetry_equiv_pos_site_id
 _symmetry_equiv_pos_as_xyz
  1  'x, y, z'
loop_
 _atom_site_type_symbol
 _atom_site_label
 _atom_site_symmetry_multiplicity
 _atom_site_fract_x
 _atom_site_fract_y
 _atom_site_fract_z
 _atom_site_occupancy
  Li  Li0  1  0.21551900  0.72194500  0.18099000  1
  Li  Li1  1  0.21433000  0.77748900  0.81969400  1
  Li  Li2  1  0.28530100  0.22235600  0.31798300  1
  Li  Li3  1  0.28520900  0.27966900  0.68141400  1
  Li  Li4  1  0.71636900  0.72114600  0.32006200  1
  Li  Li5  1  0.71619100  0.77569300  0.68152400  1
  Li  Li6  1  0.78449600  0.22269000  0.18074800  1
  Li  Li7  1  0.78387200  0.27844900  0.81895800  1
  Mn  Mn0  1  0.24698500  0.96282600  0.61312900  1
  Mn  Mn1  1  0.24846800  0.53577100  0.38561700  1
  Mn  Mn2  1  0.25183800  0.03658600  0.11329700  1
  Mn  Mn3  1  0.25073500  0.46504100  0.88612200  1
  Mn  Mn4  1  0.74810000  0.53635300  0.11511600  1
  Mn  Mn5  1  0.74794400  0.96310500  0.88672100  1
  Mn  Mn6  1  0.75205600  0.03655900  0.38600300  1
  Fe  Fe0  1  0.75289700  0.46264200  0.61405100  1
  P  P0  1  0.03811800  0.24624200  0.49957500  1
  P  P1  1  0.46414000  0.75069400  0.99977600  1
  P  P2  1  0.53544000  0.24978600  0.99991900  1
  P  P3  1  0.96554200  0.75069700  0.50077500  1
  P  P4  1  0.10543000  0.39406200  0.14703000  1
  P  P5  1  0.10563200  0.10614200  0.85201900  1
  P  P6  1  0.39267800  0.60939100  0.64559600  1
  P  P7  1  0.39401000  0.89376500  0.35290700  1
  P  P8  1  0.60522300  0.10420900  0.64703900  1
  P  P9  1  0.60405000  0.39387000  0.35157700  1
  P  P10  1  0.89406200  0.60549300  0.85652400  1
  P  P11  1  0.89406400  0.89415700  0.14736400  1
  O  O0  1  0.05916000  0.64437100  0.42516400  1
  O  O1  1  0.05976300  0.86004300  0.57547600  1
  O  O2  1  0.07495000  0.89728400  0.15741900  1
  O  O3  1  0.07455100  0.60552300  0.84516800  1
  O  O4  1  0.14733700  0.15637900  0.58272800  1
  O  O5  1  0.14677600  0.33211900  0.41854400  1
  O  O6  1  0.15596400  0.43822400  0.02901300  1
  O  O7  1  0.15543700  0.06082500  0.97079500  1
  O  O8  1  0.15961800  0.23206500  0.17999500  1
  O  O9  1  0.15819900  0.26546600  0.81841500  1
  O  O10  1  0.17766000  0.51532900  0.22682400  1
  O  O11  1  0.17838200  0.98318800  0.77302300  1
  O  O12  1  0.32130100  0.01619800  0.27382200  1
  O  O13  1  0.31870000  0.48964000  0.72606400  1
  O  O14  1  0.33468600  0.77243200  0.67715500  1
  O  O15  1  0.34110100  0.73400500  0.31974500  1
  O  O16  1  0.34342900  0.56307400  0.52773500  1
  O  O17  1  0.34478300  0.93819100  0.47222900  1
  O  O18  1  0.35696300  0.83779800  0.08352100  1
  O  O19  1  0.35824800  0.66721500  0.91723800  1
  O  O20  1  0.42356700  0.10036800  0.65701100  1
  O  O21  1  0.42412400  0.39616700  0.34023100  1
  O  O22  1  0.44198800  0.14154600  0.07559200  1
  O  O23  1  0.44220500  0.35691200  0.92436900  1
  O  O24  1  0.55668100  0.64369800  0.07566600  1
  O  O25  1  0.55825300  0.85898900  0.92394100  1
  O  O26  1  0.57139600  0.60803800  0.65736500  1
  O  O27  1  0.57461800  0.89612000  0.34298600  1
  O  O28  1  0.64350900  0.33521500  0.08108900  1
  O  O29  1  0.64437200  0.16091100  0.91707800  1
  O  O30  1  0.65527800  0.06031100  0.52845100  1
  O  O31  1  0.65644600  0.43843400  0.46849300  1
  O  O32  1  0.65776100  0.23181500  0.31882800  1
  O  O33  1  0.65695500  0.26531600  0.67987300  1
  O  O34  1  0.67672600  0.51504400  0.27100900  1
  O  O35  1  0.67785700  0.98213000  0.72691100  1
  O  O36  1  0.82133200  0.01621200  0.22658200  1
  O  O37  1  0.82296400  0.48568800  0.77751900  1
  O  O38  1  0.84158500  0.73413100  0.18117200  1
  O  O39  1  0.84024400  0.76886300  0.82205600  1
  O  O40  1  0.84582400  0.56616900  0.97591000  1
  O  O41  1  0.84424200  0.93928700  0.02846000  1
  O  O42  1  0.85800300  0.66387300  0.58230600  1
  O  O43  1  0.85823400  0.83830400  0.41739900  1
  O  O44  1  0.92477400  0.10281000  0.84174600  1
  O  O45  1  0.92583400  0.39533600  0.15852900  1
  O  O46  1  0.94478300  0.13936900  0.42375100  1
  O  O47  1  0.94474300  0.35275300  0.57408000  1
loop_
_geom_bond_atom_site_label_1
_geom_bond_atom_site_label_2
_geom_bond_distance
_geom_bond_site_symmetry_2
Li0 O10 1.924462 1_555
Li0 O18 1.965107 1_555
Li0 O2 1.973632 1_555
Li0 O15 1.981689 1_555
Li1 O11 1.915373 1_555
Li1 O19 1.951694 1_555
Li1 O3 1.955064 1_555
Li1 O14 1.991786 1_555
Li2 O12 1.914464 1_555
Li2 O5 1.945817 1_555
Li2 O21 1.959059 1_555
Li2 O8 1.972563 1_555
Li3 O13 1.946454 1_555
Li3 O9 1.969618 1_555
Li3 O20 1.992415 1_555
Li3 O4 1.996046 1_555
Li4 O34 1.938393 1_555
Li4 O27 1.977544 1_555
Li4 O43 1.978297 1_555
Li4 O38 1.979425 1_555
Li5 O35 1.924181 1_555
Li5 O26 1.952612 1_555
Li5 O42 1.962274 1_555
Li5 O39 1.989771 1_555
Li6 O36 1.920205 1_555
Li6 O28 1.961077 1_555
Li6 O45 1.962417 1_555
Li6 O32 1.977046 1_555
Li7 O37 1.917418 1_555
Li7 O29 1.967226 1_555
Li7 O44 1.976133 1_555
Li7 O33 1.991804 1_555
Mn0 O17 1.893753 1_555
Mn0 O1 1.899424 1_555
Mn0 O4 1.935608 1_565
Mn0 O14 1.984656 1_555
Mn0 O11 2.007998 1_555
Mn0 O20 2.011565 1_565
Mn1 O16 1.901037 1_555
Mn1 O0 1.939331 1_555
Mn1 O10 2.002566 1_555
Mn1 O21 2.015165 1_555
Mn1 O5 2.031321 1_555
Mn1 O15 2.070542 1_555
Mn2 O7 1.905144 1_554
Mn2 O22 1.927670 1_555
Mn2 O18 1.997480 1_545
Mn2 O12 2.017127 1_555
Mn2 O2 2.020535 1_545
Mn2 O8 2.053646 1_555
Mn3 O6 1.905106 1_556
Mn3 O23 1.948128 1_555
Mn3 O3 2.008002 1_555
Mn3 O13 2.010869 1_555
Mn3 O19 2.040786 1_555
Mn3 O9 2.094191 1_555
Mn4 O40 1.880329 1_554
Mn4 O24 1.947844 1_555
Mn4 O34 1.969536 1_555
Mn4 O45 2.028135 1_555
Mn4 O28 2.028356 1_555
Mn4 O38 2.076400 1_555
Mn5 O41 1.896211 1_556
Mn5 O25 1.919441 1_555
Mn5 O29 1.985255 1_565
Mn5 O35 2.009611 1_555
Mn5 O44 2.024971 1_565
Mn5 O39 2.035383 1_555
Mn6 O30 1.905543 1_555
Mn6 O46 1.939902 1_555
Mn6 O43 1.998898 1_545
Mn6 O36 2.004297 1_555
Mn6 O27 2.029894 1_545
Mn6 O32 2.056632 1_555
Fe0 O31 1.940030 1_555
Fe0 O47 1.964300 1_555
Fe0 O42 2.022827 1_555
Fe0 O37 2.056026 1_555
Fe0 O33 2.074736 1_555
Fe0 O26 2.077210 1_555
O0 P3 1.528399 1_455
O1 P3 1.545044 1_455
O2 P11 1.555413 1_455
O3 P10 1.552732 1_455
O4 P0 1.574995 1_555
O5 P0 1.540559 1_555
O6 P4 1.524813 1_555
O7 P5 1.534101 1_555
O8 P4 1.546985 1_555
O9 P5 1.525513 1_555
O10 P4 1.563222 1_555
O11 P5 1.566123 1_565
O12 P7 1.559247 1_545
O13 P6 1.559514 1_555
O14 P6 1.563686 1_555
O15 P7 1.531518 1_555
O16 P6 1.528465 1_555
O17 P7 1.538803 1_555
O18 P1 1.559804 1_554
O19 P1 1.532214 1_555
O20 P8 1.561817 1_555
O21 P9 1.548232 1_555
O22 P2 1.537226 1_554
O23 P2 1.527260 1_555
O24 P1 1.525868 1_554
O25 P1 1.541625 1_555
O26 P6 1.538319 1_555
O27 P7 1.552553 1_555
O28 P2 1.541292 1_554
O29 P2 1.569496 1_555
O30 P8 1.531434 1_555
O31 P9 1.521694 1_555
O32 P9 1.548100 1_555
O33 P8 1.538431 1_555
O34 P9 1.564217 1_555
O35 P8 1.562564 1_565
O36 P11 1.562218 1_545
O37 P10 1.544754 1_555
O38 P11 1.531595 1_555
O39 P10 1.561745 1_555
O40 P10 1.524436 1_555
O41 P11 1.535138 1_555
O42 P3 1.542639 1_555
O43 P3 1.557192 1_555
O44 P5 1.555419 1_655
O45 P4 1.545268 1_655
O46 P0 1.535435 1_655
O47 P0 1.520502 1_655
