# generated using pymatgen
data_Li3Mn2(SiO4)2
_symmetry_space_group_name_H-M   'P 1'
_cell_length_a   6.29582000
_cell_length_b   5.12562300
_cell_length_c   11.13237512
_cell_angle_alpha   89.91202107
_cell_angle_beta   90.00000000
_cell_angle_gamma   90.00000000
_symmetry_Int_Tables_number   1
_chemical_formula_structural   Li3Mn2(SiO4)2
_chemical_formula_sum   'Li6 Mn4 Si4 O16'
_cell_volume   359.24131947
_cell_formula_units_Z   2
loop_
 _symmetry_equiv_pos_site_id
 _symmetry_equiv_pos_as_xyz
  1  'x, y, z'
loop_
 _atom_site_type_symbol
 _atom_site_label
 _atom_site_symmetry_multiplicity
 _atom_site_fract_x
 _atom_site_fract_y
 _atom_site_fract_z
 _atom_site_occupancy
  Li  Li0  1  0.23959900  0.23608900  0.82158200  1
  Li  Li1  1  0.76040100  0.23608900  0.32158200  1
  Li  Li2  1  0.75488900  0.74256100  0.67477200  1
  Li  Li3  1  0.50544700  0.74283800  0.90878800  1
  Li  Li4  1  0.49455300  0.74283800  0.40878800  1
  Li  Li5  1  0.24511100  0.74256100  0.17477200  1
  Mn  Mn0  1  0.99759500  0.74195900  0.42144900  1
  Mn  Mn1  1  0.00240500  0.74195900  0.92144900  1
  Mn  Mn2  1  0.50227600  0.24941400  0.08532500  1
  Mn  Mn3  1  0.49772400  0.24941400  0.58532500  1
  Si  Si0  1  0.25276800  0.74234300  0.66651100  1
  Si  Si1  1  0.74723200  0.74234300  0.16651100  1
  Si  Si2  1  0.74667900  0.22972500  0.83411400  1
  Si  Si3  1  0.25332100  0.22972500  0.33411400  1
  O  O0  1  0.29188000  0.34264800  0.19627500  1
  O  O1  1  0.27861900  0.41997000  0.66788900  1
  O  O2  1  0.03145800  0.34980400  0.38347200  1
  O  O3  1  0.02955800  0.81195700  0.59985400  1
  O  O4  1  0.97044200  0.81195700  0.09985400  1
  O  O5  1  0.96854200  0.34980400  0.88347200  1
  O  O6  1  0.72138100  0.41997000  0.16788900  1
  O  O7  1  0.70812000  0.34264800  0.69627500  1
  O  O8  1  0.74449400  0.84586400  0.30768500  1
  O  O9  1  0.74586500  0.91044200  0.83353900  1
  O  O10  1  0.53216400  0.85241600  0.09181800  1
  O  O11  1  0.53871900  0.33407000  0.91563100  1
  O  O12  1  0.46128100  0.33407000  0.41563100  1
  O  O13  1  0.46783600  0.85241600  0.59181800  1
  O  O14  1  0.25413500  0.91044200  0.33353900  1
  O  O15  1  0.25550600  0.84586400  0.80768500  1
loop_
_geom_bond_atom_site_label_1
_geom_bond_atom_site_label_2
_geom_bond_distance
_geom_bond_site_symmetry_2
Li0 O5 1.930774 1_455
Li0 O1 1.967517 1_555
Li0 O15 2.008855 1_545
Li0 O11 2.212800 1_555
Li1 O2 1.930774 1_655
Li1 O6 1.967517 1_555
Li1 O8 2.008855 1_545
Li1 O12 2.212800 1_555
Li2 O3 1.952320 1_655
Li2 O9 1.967801 1_555
Li2 O7 2.084272 1_555
Li2 O13 2.105792 1_555
Li3 O9 1.930961 1_555
Li3 O15 2.004991 1_555
Li3 O11 2.106897 1_555
Li3 O10 2.121063 1_556
Li4 O14 1.930961 1_555
Li4 O8 2.004991 1_555
Li4 O12 2.106897 1_555
Li4 O13 2.121063 1_555
Li5 O4 1.952320 1_455
Li5 O14 1.967801 1_555
Li5 O0 2.084272 1_555
Li5 O10 2.105792 1_555
Mn0 O3 2.028765 1_655
Mn0 O2 2.065685 1_655
Mn0 O14 2.075950 1_655
Mn0 O8 2.103490 1_555
Mn1 O4 2.028765 1_456
Mn1 O5 2.065685 1_455
Mn1 O9 2.075950 1_455
Mn1 O15 2.103490 1_555
Mn2 O0 1.873594 1_555
Mn2 O6 1.874668 1_555
Mn2 O11 1.951178 1_554
Mn2 O10 2.044711 1_545
Mn3 O7 1.873594 1_555
Mn3 O1 1.874668 1_555
Mn3 O12 1.951178 1_555
Mn3 O13 2.044711 1_545
O0 Si3 1.657055 1_555
O1 Si0 1.660406 1_555
O2 Si3 1.622606 1_555
O3 Si0 1.628491 1_555
O4 Si1 1.628491 1_555
O5 Si2 1.622606 1_555
O6 Si1 1.660406 1_555
O7 Si2 1.657055 1_555
O8 Si1 1.659620 1_555
O9 Si2 1.636555 1_565
O10 Si1 1.685728 1_555
O11 Si2 1.680852 1_555
O12 Si3 1.680852 1_555
O13 Si0 1.685728 1_555
O14 Si3 1.636555 1_565
O15 Si0 1.659620 1_555
