# generated using pymatgen
data_Cr2O3
_symmetry_space_group_name_H-M   'P 1'
_cell_length_a   5.03937035
_cell_length_b   5.21089174
_cell_length_c   7.19470457
_cell_angle_alpha   89.99998066
_cell_angle_beta   90.00002784
_cell_angle_gamma   90.00000000
_symmetry_Int_Tables_number   1
_chemical_formula_structural   Cr2O3
_chemical_formula_sum   'Cr8 O12'
_cell_volume   188.93016004
_cell_formula_units_Z   4
loop_
 _symmetry_equiv_pos_site_id
 _symmetry_equiv_pos_as_xyz
  1  'x, y, z'
loop_
 _atom_site_type_symbol
 _atom_site_label
 _atom_site_symmetry_multiplicity
 _atom_site_fract_x
 _atom_site_fract_y
 _atom_site_fract_z
 _atom_site_occupancy
  Cr  Cr0  1  0.24990804  0.46723059  0.60665242  1
  Cr  Cr1  1  0.24990804  0.03277041  0.39334758  1
  Cr  Cr2  1  0.25009196  0.53277041  0.10665242  1
  Cr  Cr3  1  0.25009196  0.96723059  0.89334758  1
  Cr  Cr4  1  0.74990804  0.03276941  0.10665242  1
  Cr  Cr5  1  0.74990804  0.46723059  0.89334758  1
  Cr  Cr6  1  0.75009196  0.53277041  0.39334758  1
  Cr  Cr7  1  0.75009196  0.96722959  0.60665242  1
  O  O0  1  0.05034427  0.25000000  -0.00000000  1
  O  O1  1  0.10760795  0.39380701  0.34863089  1
  O  O2  1  0.10760795  0.10619299  0.65136911  1
  O  O3  1  0.39239105  0.60619599  0.84863289  1
  O  O4  1  0.39239105  0.89380401  0.15136711  1
  O  O5  1  0.44965873  0.75000000  0.50000000  1
  O  O6  1  0.55034427  0.25000000  0.50000000  1
  O  O7  1  0.60760795  0.39380701  0.15136911  1
  O  O8  1  0.60760795  0.10619299  0.84863089  1
  O  O9  1  0.89239105  0.60619599  0.65136711  1
  O  O10  1  0.89239105  0.89380401  0.34863289  1
  O  O11  1  0.94965873  0.75000000  0.00000000  1
loop_
_geom_bond_atom_site_label_1
_geom_bond_atom_site_label_2
_geom_bond_distance
_geom_bond_site_symmetry_2
Cr0 O5 1.942479 1_555
Cr0 O9 1.968209 1_455
Cr0 O3 2.017655 1_555
Cr0 O1 2.026524 1_555
Cr0 O2 2.038906 1_555
Cr0 O6 2.040189 1_555
Cr1 O5 1.942482 1_545
Cr1 O10 1.968211 1_445
Cr1 O4 2.017658 1_545
Cr1 O2 2.026524 1_555
Cr1 O1 2.038901 1_555
Cr1 O6 2.040185 1_555
Cr2 O0 1.942475 1_555
Cr2 O7 1.968203 1_555
Cr2 O1 2.017641 1_555
Cr2 O3 2.026511 1_554
Cr2 O4 2.038883 1_555
Cr2 O11 2.040174 1_455
Cr3 O0 1.942471 1_566
Cr3 O8 1.968201 1_565
Cr3 O2 2.017639 1_565
Cr3 O4 2.026512 1_556
Cr3 O3 2.038887 1_555
Cr3 O11 2.040177 1_456
Cr4 O11 1.942479 1_545
Cr4 O4 1.968209 1_545
Cr4 O10 2.017655 1_545
Cr4 O8 2.026524 1_554
Cr4 O7 2.038906 1_555
Cr4 O0 2.040189 1_655
Cr5 O11 1.942479 1_556
Cr5 O3 1.968209 1_555
Cr5 O9 2.017655 1_555
Cr5 O7 2.026524 1_556
Cr5 O8 2.038906 1_555
Cr5 O0 2.040188 1_656
Cr6 O6 1.942475 1_555
Cr6 O1 1.968203 1_655
Cr6 O7 2.017641 1_555
Cr6 O9 2.026511 1_555
Cr6 O10 2.038882 1_555
Cr6 O5 2.040175 1_555
Cr7 O6 1.942475 1_565
Cr7 O2 1.968203 1_665
Cr7 O8 2.017642 1_565
Cr7 O10 2.026512 1_555
Cr7 O9 2.038882 1_555
Cr7 O5 2.040174 1_555
O0 O1 2.633699 1_555
O0 O2 2.633699 1_554
O3 O5 2.633710 1_555
O4 O5 2.633710 1_555
O6 O8 2.633698 1_555
O6 O7 2.633699 1_555
O10 O11 2.633711 1_555
O11 O9 2.633710 1_554
