# generated using pymatgen
data_Li3MnV(PO4)3
_symmetry_space_group_name_H-M   'P 1'
_cell_length_a   10.22740220
_cell_length_b   10.22740220
_cell_length_c   10.22740179
_cell_angle_alpha   109.29413827
_cell_angle_beta   109.29413827
_cell_angle_gamma   109.29413680
_symmetry_Int_Tables_number   1
_chemical_formula_structural   Li3MnV(PO4)3
_chemical_formula_sum   'Li12 Mn4 V4 P12 O48'
_cell_volume   828.87519015
_cell_formula_units_Z   4
loop_
 _symmetry_equiv_pos_site_id
 _symmetry_equiv_pos_as_xyz
  1  'x, y, z'
loop_
 _atom_site_type_symbol
 _atom_site_label
 _atom_site_symmetry_multiplicity
 _atom_site_fract_x
 _atom_site_fract_y
 _atom_site_fract_z
 _atom_site_occupancy
  Li  Li0  1  0.62437300  0.87300900  0.24962600  1
  Li  Li1  1  0.37976400  0.25626800  0.12860900  1
  Li  Li2  1  0.75037400  0.37562700  0.12699100  1
  Li  Li3  1  0.87300900  0.24962600  0.62437300  1
  Li  Li4  1  0.25626800  0.12860900  0.37976400  1
  Li  Li5  1  0.12860900  0.37976400  0.25626800  1
  Li  Li6  1  0.87139100  0.62023600  0.74373200  1
  Li  Li7  1  0.74373200  0.87139100  0.62023600  1
  Li  Li8  1  0.12699100  0.75037400  0.37562700  1
  Li  Li9  1  0.24962600  0.62437300  0.87300900  1
  Li  Li10  1  0.62023600  0.74373200  0.87139100  1
  Li  Li11  1  0.37562700  0.12699100  0.75037400  1
  Mn  Mn0  1  0.50000000  0.50000000  0.00000000  1
  Mn  Mn1  1  0.00000000  0.50000000  0.50000000  1
  Mn  Mn2  1  0.50000000  0.50000000  0.50000000  1
  Mn  Mn3  1  0.50000000  0.00000000  0.50000000  1
  V  V0  1  0.50000000  0.00000000  0.00000000  1
  V  V1  1  0.00000000  0.00000000  0.00000000  1
  V  V2  1  0.00000000  0.50000000  0.00000000  1
  V  V3  1  0.00000000  0.00000000  0.50000000  1
  P  P0  1  0.24477500  0.87203800  0.12085400  1
  P  P1  1  0.87914600  0.75522500  0.12796200  1
  P  P2  1  0.62368800  0.24636400  0.37284600  1
  P  P3  1  0.87203800  0.12085400  0.24477500  1
  P  P4  1  0.37284600  0.62368800  0.24636400  1
  P  P5  1  0.75363600  0.62715400  0.37631200  1
  P  P6  1  0.24636400  0.37284600  0.62368800  1
  P  P7  1  0.12796200  0.87914600  0.75522500  1
  P  P8  1  0.62715400  0.37631200  0.75363600  1
  P  P9  1  0.37631200  0.75363600  0.62715400  1
  P  P10  1  0.12085400  0.24477500  0.87203800  1
  P  P11  1  0.75522500  0.12796200  0.87914600  1
  O  O0  1  0.40979200  0.61882500  0.10732000  1
  O  O1  1  0.19941000  0.00334900  0.10809700  1
  O  O2  1  0.10809700  0.19941000  0.00334900  1
  O  O3  1  0.38611300  0.88544000  0.08872600  1
  O  O4  1  0.70839500  0.71620000  0.09126600  1
  O  O5  1  0.70053200  0.98957300  0.10941900  1
  O  O6  1  0.59478000  0.20667100  0.20190600  1
  O  O7  1  0.61882500  0.10732000  0.40979200  1
  O  O8  1  0.49039400  0.28251700  0.37808700  1
  O  O9  1  0.37808700  0.49039400  0.28251700  1
  O  O10  1  0.01042700  0.89058100  0.29946800  1
  O  O11  1  0.89058100  0.29946800  0.01042700  1
  O  O12  1  0.61455200  0.49727600  0.20347000  1
  O  O13  1  0.00334900  0.10809700  0.19941000  1
  O  O14  1  0.88544000  0.08872600  0.38611300  1
  O  O15  1  0.90873400  0.29160500  0.28380000  1
  O  O16  1  0.28380000  0.90873400  0.29160500  1
  O  O17  1  0.91127400  0.61388700  0.11456000  1
  O  O18  1  0.79653000  0.38544800  0.50272400  1
  O  O19  1  0.50272400  0.79653000  0.38544800  1
  O  O20  1  0.71748300  0.62191300  0.50960600  1
  O  O21  1  0.89268000  0.59020800  0.38117500  1
  O  O22  1  0.20667100  0.20190600  0.59478000  1
  O  O23  1  0.20190600  0.59478000  0.20667100  1
  O  O24  1  0.79809400  0.40522000  0.79332900  1
  O  O25  1  0.79332900  0.79809400  0.40522000  1
  O  O26  1  0.10732000  0.40979200  0.61882500  1
  O  O27  1  0.28251700  0.37808700  0.49039400  1
  O  O28  1  0.49727600  0.20347000  0.61455200  1
  O  O29  1  0.20347000  0.61455200  0.49727600  1
  O  O30  1  0.08872600  0.38611300  0.88544000  1
  O  O31  1  0.71620000  0.09126600  0.70839500  1
  O  O32  1  0.09126600  0.70839500  0.71620000  1
  O  O33  1  0.11456000  0.91127400  0.61388700  1
  O  O34  1  0.99665100  0.89190300  0.80059000  1
  O  O35  1  0.38544800  0.50272400  0.79653000  1
  O  O36  1  0.10941900  0.70053200  0.98957300  1
  O  O37  1  0.98957300  0.10941900  0.70053200  1
  O  O38  1  0.62191300  0.50960600  0.71748300  1
  O  O39  1  0.50960600  0.71748300  0.62191300  1
  O  O40  1  0.38117500  0.89268000  0.59020800  1
  O  O41  1  0.40522000  0.79332900  0.79809400  1
  O  O42  1  0.29946800  0.01042700  0.89058100  1
  O  O43  1  0.29160500  0.28380000  0.90873400  1
  O  O44  1  0.61388700  0.11456000  0.91127400  1
  O  O45  1  0.89190300  0.80059000  0.99665100  1
  O  O46  1  0.80059000  0.99665100  0.89190300  1
  O  O47  1  0.59020800  0.38117500  0.89268000  1
loop_
_geom_bond_atom_site_label_1
_geom_bond_atom_site_label_2
_geom_bond_distance
_geom_bond_site_symmetry_2
Li0 O19 2.303554 1_555
Li0 O0 2.304650 1_555
Li0 O5 2.310473 1_555
Li0 O14 2.356717 1_565
Li0 O25 2.443104 1_555
Li0 O7 2.446714 1_565
Li0 O4 2.459180 1_555
Li0 O3 2.520933 1_555
Li1 O43 2.279353 1_554
Li1 O8 2.302457 1_555
Li1 O6 2.356723 1_555
Li1 O9 2.401220 1_555
Li1 O2 2.405598 1_555
Li1 O12 2.460589 1_555
Li1 O42 2.488374 1_554
Li1 O1 2.523896 1_555
Li2 O12 2.303554 1_555
Li2 O21 2.304650 1_555
Li2 O11 2.310473 1_555
Li2 O44 2.356717 1_554
Li2 O6 2.443104 1_555
Li2 O47 2.446714 1_554
Li2 O15 2.459180 1_555
Li2 O17 2.520933 1_555
Li3 O18 2.303554 1_555
Li3 O7 2.304650 1_555
Li3 O37 2.310474 1_555
Li3 O30 2.356717 1_655
Li3 O24 2.443104 1_555
Li3 O26 2.446714 1_655
Li3 O31 2.459180 1_555
Li3 O14 2.520933 1_555
Li4 O16 2.279354 1_545
Li4 O27 2.302457 1_555
Li4 O22 2.356723 1_555
Li4 O8 2.401220 1_555
Li4 O1 2.405598 1_555
Li4 O28 2.460589 1_555
Li4 O10 2.488374 1_545
Li4 O13 2.523896 1_555
Li5 O15 2.279354 1_455
Li5 O9 2.302457 1_555
Li5 O23 2.356723 1_555
Li5 O27 2.401220 1_555
Li5 O13 2.405598 1_555
Li5 O29 2.460589 1_555
Li5 O11 2.488374 1_455
Li5 O2 2.523896 1_555
Li6 O32 2.279354 1_655
Li6 O38 2.302457 1_555
Li6 O24 2.356723 1_555
Li6 O20 2.401220 1_555
Li6 O34 2.405598 1_555
Li6 O18 2.460589 1_555
Li6 O36 2.488374 1_655
Li6 O45 2.523896 1_555
Li7 O31 2.279354 1_565
Li7 O20 2.302457 1_555
Li7 O25 2.356723 1_555
Li7 O39 2.401220 1_555
Li7 O46 2.405598 1_555
Li7 O19 2.460589 1_555
Li7 O37 2.488374 1_565
Li7 O34 2.523896 1_555
Li8 O29 2.303554 1_555
Li8 O40 2.304650 1_555
Li8 O10 2.310474 1_555
Li8 O17 2.356717 1_455
Li8 O23 2.443104 1_555
Li8 O21 2.446714 1_455
Li8 O16 2.459180 1_555
Li8 O33 2.520933 1_555
Li9 O35 2.303554 1_555
Li9 O26 2.304650 1_555
Li9 O36 2.310473 1_555
Li9 O3 2.356717 1_556
Li9 O41 2.443104 1_555
Li9 O0 2.446714 1_556
Li9 O32 2.459180 1_555
Li9 O30 2.520933 1_555
Li10 O4 2.279353 1_556
Li10 O39 2.302457 1_555
Li10 O41 2.356723 1_555
Li10 O38 2.401220 1_555
Li10 O45 2.405598 1_555
Li10 O35 2.460589 1_555
Li10 O5 2.488374 1_556
Li10 O46 2.523896 1_555
Li11 O28 2.303554 1_555
Li11 O47 2.304650 1_555
Li11 O42 2.310473 1_555
Li11 O33 2.356717 1_545
Li11 O22 2.443104 1_555
Li11 O40 2.446714 1_545
Li11 O43 2.459180 1_555
Li11 O44 2.520933 1_555
Mn0 O0 2.015301 1_555
Mn0 O47 2.015301 1_554
Mn0 O12 2.037780 1_555
Mn0 O35 2.037780 1_554
Mn0 O43 2.123716 1_554
Mn0 O4 2.123716 1_555
Mn1 O21 2.015301 1_455
Mn1 O26 2.015301 1_555
Mn1 O29 2.037780 1_555
Mn1 O18 2.037780 1_455
Mn1 O15 2.123716 1_455
Mn1 O32 2.123716 1_555
Mn2 O38 2.110368 1_555
Mn2 O9 2.110368 1_555
Mn2 O39 2.110368 1_555
Mn2 O8 2.110368 1_555
Mn2 O20 2.110368 1_555
Mn2 O27 2.110368 1_555
Mn3 O40 2.015301 1_545
Mn3 O7 2.015301 1_555
Mn3 O28 2.037780 1_555
Mn3 O19 2.037780 1_545
Mn3 O16 2.123716 1_545
Mn3 O31 2.123716 1_555
O0 P4 1.577428 1_555
O1 P0 1.588523 1_545
O1 V1 1.954886 1_555
O2 P10 1.588523 1_554
O2 V1 1.954886 1_555
O3 P0 1.558524 1_555
O3 V0 2.012988 1_565
O4 P1 1.535298 1_555
O5 P3 1.551316 1_565
O5 V0 2.043690 1_565
O6 P2 1.555239 1_555
O6 V0 2.027399 1_555
O7 P2 1.577428 1_555
O8 P2 1.538291 1_555
O9 P4 1.538291 1_555
O10 P1 1.551316 1_455
O10 V3 2.043689 1_565
O11 P11 1.551316 1_554
O11 V2 2.043690 1_655
O12 P5 1.565455 1_555
O13 P3 1.588523 1_455
O13 V1 1.954886 1_555
O14 P3 1.558524 1_555
O14 V3 2.012988 1_655
O15 P3 1.535298 1_555
O16 P0 1.535298 1_555
O17 P1 1.558524 1_555
O17 V2 2.012988 1_655
O18 P2 1.565455 1_555
O19 P4 1.565455 1_555
O20 P5 1.538291 1_555
O21 P5 1.577428 1_555
O22 P6 1.555239 1_555
O22 V3 2.027399 1_555
O23 P4 1.555239 1_555
O23 V2 2.027399 1_555
O24 P8 1.555239 1_555
O24 V2 2.027399 1_656
O25 P5 1.555239 1_555
O25 V3 2.027399 1_665
O26 P6 1.577428 1_555
O27 P6 1.538291 1_555
O28 P8 1.565455 1_555
O29 P9 1.565455 1_555
O30 P10 1.558524 1_555
O30 V2 2.012988 1_556
O31 P11 1.535298 1_555
O32 P7 1.535298 1_555
O33 P7 1.558524 1_555
O33 V3 2.012988 1_565
O34 P7 1.588523 1_655
O34 V1 1.954886 1_666
O35 P6 1.565455 1_555
O36 P0 1.551316 1_556
O36 V2 2.043690 1_556
O37 P10 1.551316 1_655
O37 V3 2.043689 1_655
O38 P8 1.538291 1_555
O39 P9 1.538291 1_555
O40 P9 1.577428 1_555
O41 P9 1.555239 1_555
O41 V0 2.027399 1_566
O42 P7 1.551316 1_545
O42 V0 2.043690 1_556
O43 P10 1.535298 1_555
O44 P11 1.558524 1_555
O44 V0 2.012988 1_556
O45 P1 1.588523 1_556
O45 V1 1.954886 1_666
O46 P11 1.588523 1_565
O46 V1 1.954886 1_666
O47 P8 1.577428 1_555
