# generated using pymatgen
data_Li5V3P8O29
_symmetry_space_group_name_H-M   'P 1'
_cell_length_a   9.73867400
_cell_length_b   9.82846003
_cell_length_c   14.04472501
_cell_angle_alpha   90.78100299
_cell_angle_beta   89.90473901
_cell_angle_gamma   119.57677880
_symmetry_Int_Tables_number   1
_chemical_formula_structural   Li5V3P8O29
_chemical_formula_sum   'Li10 V6 P16 O58'
_cell_volume   1169.00891912
_cell_formula_units_Z   2
loop_
 _symmetry_equiv_pos_site_id
 _symmetry_equiv_pos_as_xyz
  1  'x, y, z'
loop_
 _atom_site_type_symbol
 _atom_site_label
 _atom_site_symmetry_multiplicity
 _atom_site_fract_x
 _atom_site_fract_y
 _atom_site_fract_z
 _atom_site_occupancy
  Li  Li0  1  0.31099100  0.08424600  0.93923400  1
  Li  Li1  1  0.65009400  0.31737800  0.60707200  1
  Li  Li2  1  0.90752200  0.22776600  0.94424500  1
  Li  Li3  1  0.77034100  0.67906800  0.93876700  1
  Li  Li4  1  0.09113600  0.32320900  0.55788500  1
  Li  Li5  1  0.90527200  0.67170500  0.43791400  1
  Li  Li6  1  0.23200100  0.32073100  0.06624400  1
  Li  Li7  1  0.34205600  0.67593200  0.39070100  1
  Li  Li8  1  0.67937000  0.90780300  0.06256300  1
  Li  Li9  1  0.99883700  0.00089300  0.49450600  1
  V  V0  1  0.00126600  0.43381100  0.75102400  1
  V  V1  1  0.00097500  0.57319500  0.24504400  1
  V  V2  1  0.43531800  0.42978800  0.25529400  1
  V  V3  1  0.56532100  0.56942500  0.74662400  1
  V  V4  1  0.42822400  0.99620000  0.74511400  1
  V  V5  1  0.57053300  0.00465300  0.25532600  1
  P  P0  1  0.31660600  0.08344700  0.15788900  1
  P  P1  1  0.30975900  0.22332800  0.66030200  1
  P  P2  1  0.78060600  0.08722200  0.65662900  1
  P  P3  1  0.66494900  0.33409500  0.86985500  1
  P  P4  1  0.67545100  0.33988600  0.37201200  1
  P  P5  1  0.91277200  0.23127000  0.16136400  1
  P  P6  1  0.09115300  0.32096800  0.34396400  1
  P  P7  1  0.76386700  0.67948600  0.15610600  1
  P  P8  1  0.23523300  0.32178300  0.84545300  1
  P  P9  1  0.90966800  0.68084300  0.65454800  1
  P  P10  1  0.08513300  0.77196100  0.83820900  1
  P  P11  1  0.32851100  0.66205100  0.62790100  1
  P  P12  1  0.33651400  0.66285300  0.12938000  1
  P  P13  1  0.21919500  0.91474900  0.34231500  1
  P  P14  1  0.68983800  0.77828900  0.34065000  1
  P  P15  1  0.68300700  0.91713400  0.84117700  1
  O  O0  1  0.19185900  0.99351100  0.42483000  1
  O  O1  1  0.34111600  0.08312300  0.66260900  1
  O  O2  1  0.24313600  0.24722100  0.93648600  1
  O  O3  1  0.33606500  0.24955600  0.16558800  1
  O  O4  1  0.47562100  0.09126600  0.18313700  1
  O  O5  1  0.51511000  0.18633500  0.83045200  1
  O  O6  1  0.62827900  0.09941000  0.66434700  1
  O  O7  1  0.75341000  0.00213500  0.93402000  1
  O  O8  1  0.74840700  0.08400100  0.16035400  1
  O  O9  1  0.52672500  0.33837400  0.33162900  1
  O  O10  1  0.47454300  0.37187200  0.66913400  1
  O  O11  1  0.67830600  0.19485800  0.33149900  1
  O  O12  1  0.68361400  0.33678500  0.97550900  1
  O  O13  1  0.68686800  0.35595500  0.47862400  1
  O  O14  1  0.81682800  0.33228500  0.82338900  1
  O  O15  1  0.61600600  0.52248400  0.17549200  1
  O  O16  1  0.66749000  0.48423500  0.83168200  1
  O  O17  1  0.92303000  0.26144800  0.66367800  1
  O  O18  1  0.00303000  0.21257000  0.25118800  1
  O  O19  1  0.01096800  0.23693500  0.43228400  1
  O  O20  1  0.00265200  0.24558500  0.07131100  1
  O  O21  1  0.90063500  0.38076900  0.18064000  1
  O  O22  1  0.82339600  0.49255900  0.33050600  1
  O  O23  1  0.08392200  0.33917900  0.84188600  1
  O  O24  1  0.89779400  0.51753100  0.67255400  1
  O  O25  1  0.74054300  0.65422200  0.66453400  1
  O  O26  1  0.21453700  0.20519400  0.75882800  1
  O  O27  1  0.20717200  0.21499400  0.57928400  1
  O  O28  1  0.79518300  0.78886400  0.42075700  1
  O  O29  1  0.26147600  0.34836000  0.33769200  1
  O  O30  1  0.10128700  0.48226800  0.32979100  1
  O  O31  1  0.91158200  0.65775400  0.16292500  1
  O  O32  1  0.17900400  0.50852600  0.67044100  1
  O  O33  1  0.09626000  0.61978500  0.81873200  1
  O  O34  1  0.98871800  0.75813300  0.92283800  1
  O  O35  1  0.98527000  0.75364800  0.56308100  1
  O  O36  1  0.00686800  0.79363800  0.74217400  1
  O  O37  1  0.07807000  0.73984500  0.33569500  1
  O  O38  1  0.33199700  0.51291900  0.16977800  1
  O  O39  1  0.38250100  0.47868500  0.82504100  1
  O  O40  1  0.18435400  0.66089600  0.17826200  1
  O  O41  1  0.32098800  0.65486300  0.02375400  1
  O  O42  1  0.31466600  0.64362100  0.52167200  1
  O  O43  1  0.32497500  0.80632600  0.66818500  1
  O  O44  1  0.52614700  0.62902100  0.33278600  1
  O  O45  1  0.47549200  0.66151200  0.66929800  1
  O  O46  1  0.25203000  0.91637300  0.83894900  1
  O  O47  1  0.20063600  0.98753600  0.24352500  1
  O  O48  1  0.25133400  0.00768300  0.06405100  1
  O  O49  1  0.37171200  0.90230200  0.33603500  1
  O  O50  1  0.48477400  0.81282200  0.16843200  1
  O  O51  1  0.52390500  0.90844800  0.81828900  1
  O  O52  1  0.66539300  0.75254300  0.83845700  1
  O  O53  1  0.75589100  0.75367200  0.06509100  1
  O  O54  1  0.78434800  0.79682600  0.24182600  1
  O  O55  1  0.65799000  0.91787200  0.33782200  1
  O  O56  1  0.80645000  0.00745800  0.57411200  1
  O  O57  1  0.79919900  0.01313400  0.75583400  1
loop_
_geom_bond_atom_site_label_1
_geom_bond_atom_site_label_2
_geom_bond_distance
_geom_bond_site_symmetry_2
Li0 O48 1.891524 1_556
Li0 O46 2.009945 1_545
Li0 O2 2.012611 1_555
Li0 O5 2.314136 1_555
Li1 O13 1.846333 1_555
Li1 O10 2.203569 1_555
Li1 O6 2.208786 1_555
Li1 O24 2.410021 1_555
Li2 O7 1.974173 1_555
Li2 O20 1.977522 1_656
Li2 O23 2.096341 1_655
Li2 O14 2.380065 1_555
Li3 O34 1.883744 1_555
Li3 O53 1.941842 1_556
Li3 O52 2.076539 1_555
Li3 O16 2.228262 1_555
Li4 O27 1.922200 1_555
Li4 O19 1.936654 1_555
Li4 O17 2.071676 1_455
Li4 O32 2.221726 1_555
Li5 O35 1.921582 1_555
Li5 O28 1.939221 1_555
Li5 O37 2.060846 1_655
Li5 O22 2.134766 1_555
Li6 O2 1.973763 1_554
Li6 O20 1.977811 1_555
Li6 O3 2.048010 1_555
Li6 O38 2.178232 1_555
Li7 O42 1.867151 1_555
Li7 O44 2.211168 1_555
Li7 O49 2.243752 1_555
Li7 O30 2.325767 1_555
Li8 O53 1.991838 1_555
Li8 O7 2.005032 1_564
Li8 O8 2.031307 1_565
Li8 O50 2.226162 1_555
Li9 O0 2.150124 1_645
Li9 O56 2.207929 1_555
Li9 O28 2.284081 1_545
Li9 O27 2.384800 1_655
Li9 O19 2.438048 1_655
Li9 O35 2.568377 1_545
O0 P13 1.480244 1_555
O1 P1 1.552369 1_555
O1 V4 1.880937 1_545
O2 P8 1.503050 1_555
O3 P0 1.550100 1_555
O3 V2 1.977990 1_555
O4 P0 1.553511 1_555
O4 V5 1.846719 1_555
O5 P3 1.559945 1_555
O5 V4 2.006493 1_545
O6 P2 1.549612 1_555
O6 V4 2.045617 1_545
O7 P15 1.508692 1_545
O8 P5 1.539418 1_555
O8 V5 2.018698 1_555
O9 P4 1.549516 1_555
O9 V2 1.888924 1_555
O10 P1 1.550817 1_555
O10 V3 1.996763 1_555
O11 P4 1.540538 1_555
O11 V5 1.937304 1_555
O12 P3 1.493562 1_555
O13 P4 1.502030 1_555
O14 P3 1.623697 1_555
O14 V0 1.872744 1_655
O15 P7 1.531471 1_555
O15 V2 1.902972 1_555
O16 P3 1.565583 1_555
O16 V3 1.992936 1_555
O17 P2 1.586518 1_555
O17 V0 1.904613 1_655
O18 P5 1.602315 1_455
O18 P6 1.622554 1_555
O19 P6 1.489505 1_555
O20 P5 1.505060 1_455
O21 P5 1.551365 1_555
O21 V1 1.865959 1_655
O22 P4 1.598162 1_555
O22 V1 1.930177 1_655
O23 P8 1.565995 1_555
O23 V0 1.978987 1_555
O24 P9 1.575255 1_555
O24 V0 1.937531 1_655
O25 P9 1.541340 1_555
O25 V3 1.884531 1_555
O26 P8 1.602709 1_555
O26 P1 1.626603 1_555
O27 P1 1.489983 1_555
O28 P14 1.491479 1_555
O29 P6 1.546259 1_555
O29 V2 1.878070 1_555
O30 P6 1.554581 1_555
O30 V1 2.016033 1_555
O31 P7 1.558382 1_555
O31 V1 1.876831 1_655
O32 P11 1.614494 1_555
O32 V0 1.891461 1_555
O33 P10 1.572355 1_555
O33 V0 1.840483 1_555
O34 P10 1.479044 1_655
O35 P9 1.485332 1_555
O36 P9 1.603235 1_455
O36 P10 1.617750 1_555
O37 P13 1.586314 1_555
O37 V1 1.897305 1_555
O38 P12 1.566566 1_555
O38 V2 1.991205 1_555
O39 P8 1.531193 1_555
O39 V3 1.905521 1_555
O40 P12 1.623693 1_555
O40 V1 1.819033 1_555
O41 P12 1.488494 1_555
O42 P11 1.498706 1_555
O43 P11 1.535671 1_555
O43 V4 1.938364 1_555
O44 P14 1.547000 1_555
O44 V2 2.009112 1_555
O45 P11 1.548324 1_555
O45 V3 1.890894 1_555
O46 P10 1.542311 1_555
O46 V4 1.997088 1_555
O47 P0 1.608139 1_565
O47 P13 1.620207 1_555
O48 P0 1.484674 1_555
O49 P13 1.551627 1_555
O49 V5 2.036394 1_565
O50 P12 1.561347 1_555
O50 V5 2.031712 1_565
O51 P15 1.543283 1_555
O51 V4 1.867893 1_555
O52 P15 1.540183 1_555
O52 V3 2.015401 1_555
O53 P7 1.501106 1_555
O54 P7 1.598466 1_555
O54 P14 1.625996 1_555
O55 P14 1.549651 1_555
O55 V5 1.882202 1_565
O56 P2 1.479897 1_555
O57 P15 1.606147 1_545
O57 P2 1.631864 1_555
