# generated using pymatgen
data_Rb3TlF6
_symmetry_space_group_name_H-M   'P 1'
_cell_length_a   6.96736507
_cell_length_b   6.96736507
_cell_length_c   6.96736507
_cell_angle_alpha   90.53909901
_cell_angle_beta   119.68924067
_cell_angle_gamma   119.68924067
_symmetry_Int_Tables_number   1
_chemical_formula_structural   Rb3TlF6
_chemical_formula_sum   'Rb3 Tl1 F6'
_cell_volume   240.27304180
_cell_formula_units_Z   1
loop_
 _symmetry_equiv_pos_site_id
 _symmetry_equiv_pos_as_xyz
  1  'x, y, z'
loop_
 _atom_site_type_symbol
 _atom_site_label
 _atom_site_symmetry_multiplicity
 _atom_site_fract_x
 _atom_site_fract_y
 _atom_site_fract_z
 _atom_site_occupancy
  Rb  Rb0  1  0.50000000  0.25000000  0.75000000  1
  Rb  Rb1  1  0.50000000  0.75000000  0.25000000  1
  Rb  Rb2  1  0.00000000  0.50000000  0.50000000  1
  Tl  Tl0  1  0.00000000  0.00000000  0.00000000  1
  F  F0  1  0.69009600  0.69009600  0.00000000  1
  F  F1  1  0.69009600  0.00000000  0.69009600  1
  F  F2  1  0.30990400  0.00000000  0.30990400  1
  F  F3  1  0.30990400  0.30990400  0.00000000  1
  F  F4  1  0.00000000  0.76781200  0.76781200  1
  F  F5  1  0.00000000  0.23218800  0.23218800  1
loop_
_geom_bond_atom_site_label_1
_geom_bond_atom_site_label_2
_geom_bond_distance
_geom_bond_site_symmetry_2
F0 Tl0 2.169348 1_665
F0 F3 2.661369 1_555
F0 Rb1 2.789561 1_555
F0 Rb0 2.789561 1_554
F1 Tl0 2.169348 1_656
F1 F2 2.661369 1_555
F1 Rb0 2.789561 1_555
F1 Rb1 2.789561 1_545
F2 Tl0 2.169348 1_555
F2 Rb0 2.789561 1_555
F2 Rb1 2.789561 1_545
F3 Tl0 2.169348 1_555
F3 Rb0 2.789561 1_554
F3 Rb1 2.789561 1_555
F4 Tl0 2.277039 1_566
F4 Rb2 2.626400 1_555
F4 Rb1 3.504389 1_556
F4 Rb0 3.504389 1_565
F4 Rb0 3.504389 1_455
F4 Rb1 3.504389 1_455
F5 Tl0 2.277039 1_555
F5 Rb2 2.626400 1_555
F5 Rb1 3.504389 1_555
F5 Rb0 3.504389 1_555
F5 Rb0 3.504389 1_454
F5 Rb1 3.504389 1_445
