# generated using pymatgen
data_Li2Ni(PO3)5
_symmetry_space_group_name_H-M   'P 1'
_cell_length_a   7.01019248
_cell_length_b   7.01019248
_cell_length_c   13.54942480
_cell_angle_alpha   82.98232222
_cell_angle_beta   82.98232222
_cell_angle_gamma   113.04313042
_symmetry_Int_Tables_number   1
_chemical_formula_structural   Li2Ni(PO3)5
_chemical_formula_sum   'Li4 Ni2 P10 O30'
_cell_volume   597.51057243
_cell_formula_units_Z   2
loop_
 _symmetry_equiv_pos_site_id
 _symmetry_equiv_pos_as_xyz
  1  'x, y, z'
loop_
 _atom_site_type_symbol
 _atom_site_label
 _atom_site_symmetry_multiplicity
 _atom_site_fract_x
 _atom_site_fract_y
 _atom_site_fract_z
 _atom_site_occupancy
  Li  Li0  1  0.74324800  0.25071100  0.71145600  1
  Li  Li1  1  0.25071100  0.74324800  0.21145600  1
  Li  Li2  1  0.20080700  0.37644600  0.61582400  1
  Li  Li3  1  0.37644600  0.20080700  0.11582400  1
  Ni  Ni0  1  0.15624300  0.90024900  0.77437000  1
  Ni  Ni1  1  0.90024900  0.15624300  0.27437000  1
  P  P0  1  0.34729700  0.96270400  0.52990400  1
  P  P1  1  0.71570600  0.61086000  0.54988900  1
  P  P2  1  0.62625300  0.81911500  0.82849400  1
  P  P3  1  0.96270400  0.34729700  0.02990400  1
  P  P4  1  0.61086000  0.71570600  0.04988900  1
  P  P5  1  0.81911500  0.62625300  0.32849400  1
  P  P6  1  0.82333900  0.09268200  0.52219200  1
  P  P7  1  0.09268200  0.82333900  0.02219200  1
  P  P8  1  0.22598200  0.44641100  0.82291100  1
  P  P9  1  0.44641100  0.22598200  0.32291100  1
  O  O0  1  0.84448900  0.83965300  0.79429400  1
  O  O1  1  0.83965300  0.84448900  0.29429400  1
  O  O2  1  0.77210100  0.51392000  0.63972200  1
  O  O3  1  0.51392000  0.77210100  0.13972200  1
  O  O4  1  0.78586300  0.85211600  0.55284900  1
  O  O5  1  0.85211600  0.78586300  0.05284900  1
  O  O6  1  0.59817100  0.84546100  0.94736000  1
  O  O7  1  0.84546100  0.59817100  0.44736000  1
  O  O8  1  0.54741400  0.96688200  0.77457600  1
  O  O9  1  0.96688200  0.54741400  0.27457600  1
  O  O10  1  0.74876800  0.29931900  0.00261300  1
  O  O11  1  0.29931900  0.74876800  0.50261300  1
  O  O12  1  0.17803000  0.92526500  0.91419900  1
  O  O13  1  0.48188100  0.51007600  0.54900300  1
  O  O14  1  0.92526500  0.17803000  0.41419900  1
  O  O15  1  0.46824900  0.57665700  0.83312600  1
  O  O16  1  0.51007600  0.48188100  0.04900300  1
  O  O17  1  0.57665700  0.46824900  0.33312600  1
  O  O18  1  0.92600900  0.20640500  0.60057800  1
  O  O19  1  0.20640500  0.92600900  0.10057800  1
  O  O20  1  0.58765500  0.07871700  0.54168700  1
  O  O21  1  0.07871700  0.58765500  0.04168700  1
  O  O22  1  0.12708200  0.59293100  0.78800600  1
  O  O23  1  0.59293100  0.12708200  0.28800600  1
  O  O24  1  0.12063900  0.32636800  0.93913000  1
  O  O25  1  0.32636800  0.12063900  0.43913000  1
  O  O26  1  0.21959800  0.28258800  0.76010300  1
  O  O27  1  0.28258800  0.21959800  0.26010300  1
  O  O28  1  0.21668400  0.97773500  0.62351300  1
  O  O29  1  0.97773500  0.21668400  0.12351300  1
loop_
_geom_bond_atom_site_label_1
_geom_bond_atom_site_label_2
_geom_bond_distance
_geom_bond_site_symmetry_2
Li0 O2 1.900460 1_555
Li0 O8 1.932339 1_545
Li0 O18 1.987495 1_555
Li1 O3 1.900460 1_555
Li1 O9 1.932339 1_455
Li1 O19 1.987495 1_555
Li2 O13 1.868566 1_555
Li2 O18 1.879976 1_455
Li2 O26 2.021972 1_555
Li3 O16 1.868566 1_555
Li3 O19 1.879976 1_545
Li3 O27 2.021972 1_555
Ni0 O12 1.942813 1_555
Ni0 O28 1.997379 1_555
Ni0 O0 2.032386 1_455
Ni0 O22 2.065412 1_555
Ni0 O26 2.517735 1_565
Ni0 O8 2.595614 1_555
Ni1 O14 1.942813 1_555
Ni1 O29 1.997379 1_555
Ni1 O1 2.032386 1_545
Ni1 O23 2.065412 1_555
Ni1 O27 2.517735 1_655
Ni1 O9 2.595614 1_555
O0 P2 1.487957 1_555
O1 P5 1.487957 1_555
O2 P1 1.491788 1_555
O3 P4 1.491788 1_555
O4 P1 1.572913 1_555
O4 P6 1.594015 1_565
O5 P4 1.572913 1_555
O5 P7 1.594015 1_655
O6 P4 1.596861 1_556
O6 P2 1.640262 1_555
O7 P1 1.596861 1_555
O7 P5 1.640262 1_555
O8 P2 1.508022 1_555
O9 P5 1.508022 1_555
O10 P3 1.506677 1_555
O11 P0 1.506677 1_555
O12 P7 1.485101 1_556
O13 P1 1.512091 1_555
O14 P6 1.485101 1_555
O15 P2 1.613332 1_555
O15 P8 1.616029 1_555
O16 P4 1.512091 1_555
O17 P5 1.613332 1_555
O17 P9 1.616029 1_555
O18 P6 1.492012 1_555
O19 P7 1.492012 1_555
O20 P0 1.597084 1_545
O20 P6 1.602969 1_555
O21 P3 1.597084 1_455
O21 P7 1.602969 1_555
O22 P8 1.509390 1_555
O23 P9 1.509390 1_555
O24 P3 1.612010 1_456
O24 P8 1.624420 1_555
O25 P0 1.612010 1_545
O25 P9 1.624420 1_555
O26 P8 1.501000 1_555
O27 P9 1.501000 1_555
O28 P0 1.510823 1_555
O29 P3 1.510823 1_555
