# generated using pymatgen
data_LiVOF3
_symmetry_space_group_name_H-M   'P 1'
_cell_length_a   5.11670400
_cell_length_b   5.38249300
_cell_length_c   12.35354758
_cell_angle_alpha   71.54068694
_cell_angle_beta   90.00000000
_cell_angle_gamma   90.00000000
_symmetry_Int_Tables_number   1
_chemical_formula_structural   LiVOF3
_chemical_formula_sum   'Li4 V4 O4 F12'
_cell_volume   322.71942838
_cell_formula_units_Z   4
loop_
 _symmetry_equiv_pos_site_id
 _symmetry_equiv_pos_as_xyz
  1  'x, y, z'
loop_
 _atom_site_type_symbol
 _atom_site_label
 _atom_site_symmetry_multiplicity
 _atom_site_fract_x
 _atom_site_fract_y
 _atom_site_fract_z
 _atom_site_occupancy
  Li  Li0  1  0.16570900  0.00357400  0.74694000  1
  Li  Li1  1  0.83429100  0.00357400  0.24694000  1
  Li  Li2  1  0.32280300  0.49559100  0.74597100  1
  Li  Li3  1  0.67719700  0.49559100  0.24597100  1
  V  V0  1  0.52444700  0.02224700  0.50591500  1
  V  V1  1  0.47555300  0.02224700  0.00591500  1
  V  V2  1  0.99805700  0.51411700  0.48702500  1
  V  V3  1  0.00194300  0.51411700  0.98702500  1
  O  O0  1  0.70080000  0.26135600  0.53407600  1
  O  O1  1  0.29920000  0.26135600  0.03407600  1
  O  O2  1  0.09917900  0.64222000  0.85164400  1
  O  O3  1  0.90082100  0.64222000  0.35164400  1
  F  F0  1  0.38463500  0.13578900  0.84440900  1
  F  F1  1  0.80048500  0.22286700  0.95895100  1
  F  F2  1  0.61536500  0.13578900  0.34440900  1
  F  F3  1  0.19951500  0.22286700  0.45895100  1
  F  F4  1  0.11688500  0.35425700  0.64985800  1
  F  F5  1  0.88311500  0.35425700  0.14985800  1
  F  F6  1  0.67448200  0.72714400  0.96909000  1
  F  F7  1  0.32551800  0.72714400  0.46909000  1
  F  F8  1  0.81553600  0.76604500  0.54846800  1
  F  F9  1  0.38660000  0.85479400  0.65765200  1
  F  F10  1  0.18446400  0.76604500  0.04846800  1
  F  F11  1  0.61340000  0.85479400  0.15765200  1
loop_
_geom_bond_atom_site_label_1
_geom_bond_atom_site_label_2
_geom_bond_distance
_geom_bond_site_symmetry_2
Li0 O2 1.994683 1_545
Li1 O3 1.994683 1_545
Li2 O2 2.070924 1_555
Li3 O3 2.070924 1_555
O0 V0 1.695630 1_555
O0 V2 2.000341 1_555
O1 V1 1.695630 1_555
O1 V3 2.000341 1_554
O2 V3 1.670253 1_555
O3 V2 1.670253 1_555
F0 Li0 1.937448 1_555
F0 V1 1.948964 1_556
F0 Li2 1.959098 1_555
F0 F1 2.677562 1_555
F0 F6 2.695253 1_545
F1 V1 1.967254 1_556
F1 V3 1.996160 1_655
F1 O2 2.700563 1_655
F1 F5 2.701303 1_556
F1 F6 2.709085 1_545
F1 O1 2.745457 1_656
F2 Li1 1.937448 1_555
F2 V0 1.948964 1_555
F2 Li3 1.959098 1_555
F2 F3 2.677562 1_555
F2 F7 2.695253 1_545
F3 V0 1.967254 1_555
F3 V2 1.996160 1_455
F3 O3 2.700563 1_455
F3 F4 2.701303 1_555
F3 F7 2.709085 1_545
F3 O0 2.745457 1_455
F4 Li0 1.905266 1_555
F4 Li2 1.915877 1_555
F4 V2 2.015033 1_455
F4 F8 2.664755 1_455
F4 F7 2.704891 1_555
F5 Li1 1.905266 1_555
F5 Li3 1.915877 1_555
F5 V3 2.015033 1_654
F5 F6 2.704891 1_554
F6 V3 2.002576 1_655
F6 V1 2.055131 1_566
F6 O2 2.730586 1_655
F7 V2 2.002576 1_455
F7 V0 2.055131 1_565
F7 F9 2.647532 1_555
F7 F8 2.724313 1_555
F7 O3 2.730586 1_455
F8 V0 1.984262 1_565
F8 V2 1.984653 1_555
F8 O0 2.680242 1_565
F8 F9 2.696734 1_555
F9 Li0 1.922173 1_565
F9 Li2 1.923326 1_555
F9 V0 1.937437 1_565
F10 V1 1.984262 1_565
F10 V3 1.984653 1_554
F10 F5 2.664755 1_455
F10 O1 2.680242 1_565
F10 F11 2.696734 1_555
F10 F6 2.724313 1_554
F11 Li1 1.922173 1_565
F11 Li3 1.923326 1_555
F11 V1 1.937437 1_565
F11 F6 2.647532 1_554
