# generated using pymatgen
data_V4OF11
_symmetry_space_group_name_H-M   'P 1'
_cell_length_a   5.24802800
_cell_length_b   5.45969392
_cell_length_c   17.43628388
_cell_angle_alpha   89.14711620
_cell_angle_beta   98.19216972
_cell_angle_gamma   118.40928682
_symmetry_Int_Tables_number   1
_chemical_formula_structural   V4OF11
_chemical_formula_sum   'V8 O2 F22'
_cell_volume   434.14178525
_cell_formula_units_Z   2
loop_
 _symmetry_equiv_pos_site_id
 _symmetry_equiv_pos_as_xyz
  1  'x, y, z'
loop_
 _atom_site_type_symbol
 _atom_site_label
 _atom_site_symmetry_multiplicity
 _atom_site_fract_x
 _atom_site_fract_y
 _atom_site_fract_z
 _atom_site_occupancy
  V  V0  1  0.50658100  0.73730500  0.24309700  1
  V  V1  1  0.49341900  0.26269500  0.75690300  1
  V  V2  1  0.25231600  0.12137500  0.37397200  1
  V  V3  1  0.25370500  0.61968300  0.87367500  1
  V  V4  1  0.00000000  0.50000000  0.50000000  1
  V  V5  1  0.00000000  0.00000000  0.00000000  1
  V  V6  1  0.74629500  0.38031700  0.12632500  1
  V  V7  1  0.74768400  0.87862500  0.62602800  1
  O  O0  1  0.57915300  0.58939300  0.17027600  1
  O  O1  1  0.42084700  0.41060700  0.82972400  1
  F  F0  1  0.07775400  0.53855000  0.21346300  1
  F  F1  1  0.51886100  0.05808900  0.18732600  1
  F  F2  1  0.52072600  0.55701400  0.68622400  1
  F  F3  1  0.47927400  0.44298600  0.31377600  1
  F  F4  1  0.07337200  0.33675200  0.41168200  1
  F  F5  1  0.07658800  0.03489700  0.71300100  1
  F  F6  1  0.07646900  0.83555400  0.91184500  1
  F  F7  1  0.92341200  0.96510300  0.28699900  1
  F  F8  1  0.92224600  0.46145000  0.78653700  1
  F  F9  1  0.92662800  0.66324800  0.58831800  1
  F  F10  1  0.02393300  0.81255500  0.43696700  1
  F  F11  1  0.48113900  0.94191100  0.81267400  1
  F  F12  1  0.57203100  0.28424000  0.46228300  1
  F  F13  1  0.57360000  0.09477300  0.66707900  1
  F  F14  1  0.57268800  0.78411500  0.96281200  1
  F  F15  1  0.92353100  0.16444600  0.08815500  1
  F  F16  1  0.42796900  0.71576000  0.53771700  1
  F  F17  1  0.42640000  0.90522700  0.33292100  1
  F  F18  1  0.02310100  0.31164800  0.93753000  1
  F  F19  1  0.97689900  0.68835200  0.06247000  1
  F  F20  1  0.97606700  0.18744500  0.56303300  1
  F  F21  1  0.42731200  0.21588500  0.03718800  1
loop_
_geom_bond_atom_site_label_1
_geom_bond_atom_site_label_2
_geom_bond_distance
_geom_bond_site_symmetry_2
O0 V0 1.694228 1_555
O0 V6 1.957055 1_555
O1 V1 1.694228 1_555
O1 V3 1.957055 1_555
F0 V0 1.967435 1_555
F0 V6 1.984090 1_455
F0 F17 2.691965 1_555
F0 O0 2.726091 1_555
F0 O0 2.759430 1_455
F0 F1 2.761621 1_565
F0 F15 2.767047 1_455
F0 F3 2.782153 1_555
F1 V0 1.968982 1_545
F1 V6 1.989724 1_555
F1 F17 2.698017 1_545
F1 O0 2.748918 1_545
F1 F15 2.771398 1_555
F2 V1 1.973235 1_555
F2 V7 1.978600 1_555
F2 O1 2.662663 1_555
F2 F9 2.760358 1_555
F2 F5 2.779386 1_555
F2 F8 2.782153 1_555
F3 V0 1.973235 1_555
F3 V2 1.978600 1_555
F3 O0 2.662663 1_555
F3 F4 2.760358 1_555
F3 F7 2.779386 1_555
F4 V4 1.962263 1_555
F4 V2 1.986638 1_555
F4 F7 2.754473 1_445
F5 V1 1.969882 1_555
F5 V7 1.974411 1_445
F5 O1 2.676546 1_555
F5 F9 2.754473 1_445
F6 V5 1.972188 1_566
F6 V3 1.984962 1_555
F6 F8 2.767047 1_455
F7 V0 1.969882 1_555
F7 V2 1.974411 1_665
F7 O0 2.676546 1_555
F8 V1 1.967435 1_555
F8 V3 1.984090 1_655
F8 O1 2.726091 1_555
F8 O1 2.759430 1_655
F9 V4 1.962263 1_655
F9 V7 1.986638 1_555
F10 V2 1.970528 1_565
F10 V4 1.978702 1_555
F11 V1 1.968982 1_565
F11 V3 1.989724 1_555
F11 F13 2.698017 1_565
F11 O1 2.748918 1_565
F11 F8 2.761621 1_565
F11 F6 2.771398 1_555
F12 V2 1.965140 1_555
F12 V4 1.987267 1_655
F12 F3 2.769225 1_555
F13 V7 1.994250 1_545
F13 V1 2.016982 1_555
F13 F8 2.691965 1_555
F13 F2 2.697274 1_555
F13 F5 2.706928 1_555
F14 V3 1.973313 1_555
F14 V5 1.982916 1_666
F15 V5 1.972188 1_655
F15 V6 1.984962 1_555
F16 V7 1.965140 1_555
F16 V4 1.987267 1_555
F16 F2 2.769225 1_555
F17 V2 1.994250 1_565
F17 V0 2.016982 1_555
F17 F3 2.697274 1_555
F17 F7 2.706928 1_555
F18 V5 1.970391 1_556
F18 V3 1.980968 1_555
F19 V5 1.970391 1_665
F19 V6 1.980968 1_555
F20 V7 1.970528 1_545
F20 V4 1.978702 1_655
F21 V6 1.973313 1_555
F21 V5 1.982916 1_555
