# generated using pymatgen
data_InCoO3
_symmetry_space_group_name_H-M   'P 1'
_cell_length_a   5.12414200
_cell_length_b   5.31383300
_cell_length_c   7.43516900
_cell_angle_alpha   90.00000000
_cell_angle_beta   90.00000000
_cell_angle_gamma   90.00000000
_symmetry_Int_Tables_number   1
_chemical_formula_structural   InCoO3
_chemical_formula_sum   'In4 Co4 O12'
_cell_volume   202.45098883
_cell_formula_units_Z   4
loop_
 _symmetry_equiv_pos_site_id
 _symmetry_equiv_pos_as_xyz
  1  'x, y, z'
loop_
 _atom_site_type_symbol
 _atom_site_label
 _atom_site_symmetry_multiplicity
 _atom_site_fract_x
 _atom_site_fract_y
 _atom_site_fract_z
 _atom_site_occupancy
  In  In0  1  0.02167000  0.93628200  0.25000000  1
  In  In1  1  0.47833000  0.43628200  0.25000000  1
  In  In2  1  0.52167000  0.56371800  0.75000000  1
  In  In3  1  0.97833000  0.06371800  0.75000000  1
  Co  Co0  1  0.00000000  0.50000000  0.50000000  1
  Co  Co1  1  0.00000000  0.50000000  0.00000000  1
  Co  Co2  1  0.50000000  0.00000000  0.50000000  1
  Co  Co3  1  0.50000000  0.00000000  0.00000000  1
  O  O0  1  0.11887600  0.45114300  0.75000000  1
  O  O1  1  0.19711000  0.20029400  0.06381100  1
  O  O2  1  0.19711000  0.20029400  0.43618900  1
  O  O3  1  0.30289000  0.70029400  0.43618900  1
  O  O4  1  0.30289000  0.70029400  0.06381100  1
  O  O5  1  0.38112400  0.95114300  0.75000000  1
  O  O6  1  0.61887600  0.04885700  0.25000000  1
  O  O7  1  0.69711000  0.29970600  0.93618900  1
  O  O8  1  0.69711000  0.29970600  0.56381100  1
  O  O9  1  0.80289000  0.79970600  0.56381100  1
  O  O10  1  0.80289000  0.79970600  0.93618900  1
  O  O11  1  0.88112400  0.54885700  0.25000000  1
loop_
_geom_bond_atom_site_label_1
_geom_bond_atom_site_label_2
_geom_bond_distance
_geom_bond_site_symmetry_2
In0 O6 2.148915 1_465
In0 O2 2.166276 1_565
In0 O1 2.166276 1_565
In0 O11 2.181043 1_455
In0 O3 2.359120 1_555
In0 O4 2.359120 1_555
In0 O9 2.688396 1_455
In0 O10 2.688396 1_454
In1 O11 2.148915 1_555
In1 O3 2.166276 1_555
In1 O4 2.166276 1_555
In1 O6 2.181043 1_555
In1 O2 2.359120 1_555
In1 O1 2.359120 1_555
In1 O8 2.688396 1_555
In1 O7 2.688396 1_554
In2 O0 2.148915 1_555
In2 O7 2.166276 1_555
In2 O8 2.166276 1_555
In2 O5 2.181043 1_555
In2 O10 2.359120 1_555
In2 O9 2.359120 1_555
In2 O4 2.688396 1_556
In2 O3 2.688396 1_555
In3 O5 2.148915 1_645
In3 O10 2.166276 1_545
In3 O9 2.166276 1_545
In3 O0 2.181043 1_655
In3 O7 2.359120 1_555
In3 O8 2.359120 1_555
In3 O1 2.688396 1_656
In3 O2 2.688396 1_655
Co0 O8 1.940814 1_455
Co0 O3 1.940814 1_555
Co0 O9 1.944627 1_455
Co0 O2 1.944627 1_555
Co0 O0 1.973210 1_555
Co0 O11 1.973210 1_455
Co1 O4 1.940814 1_555
Co1 O7 1.940814 1_454
Co1 O10 1.944627 1_454
Co1 O1 1.944627 1_555
Co1 O0 1.973210 1_554
Co1 O11 1.973210 1_455
Co2 O2 1.940814 1_555
Co2 O9 1.940814 1_545
Co2 O3 1.944627 1_545
Co2 O8 1.944627 1_555
Co2 O6 1.973210 1_555
Co2 O5 1.973210 1_545
Co3 O1 1.940814 1_555
Co3 O10 1.940814 1_544
Co3 O4 1.944627 1_545
Co3 O7 1.944627 1_554
Co3 O6 1.973210 1_555
Co3 O5 1.973210 1_544
