# generated using pymatgen
data_Li8Mn5O10
_symmetry_space_group_name_H-M   'P 1'
_cell_length_a   5.22711200
_cell_length_b   5.49187299
_cell_length_c   8.41616061
_cell_angle_alpha   105.57574274
_cell_angle_beta   92.73716863
_cell_angle_gamma   91.72124816
_symmetry_Int_Tables_number   1
_chemical_formula_structural   Li8Mn5O10
_chemical_formula_sum   'Li8 Mn5 O10'
_cell_volume   232.23097053
_cell_formula_units_Z   1
loop_
 _symmetry_equiv_pos_site_id
 _symmetry_equiv_pos_as_xyz
  1  'x, y, z'
loop_
 _atom_site_type_symbol
 _atom_site_label
 _atom_site_symmetry_multiplicity
 _atom_site_fract_x
 _atom_site_fract_y
 _atom_site_fract_z
 _atom_site_occupancy
  Li  Li0  1  0.62132800  0.35815500  0.00928600  1
  Li  Li1  1  0.59352000  0.89688500  0.19091300  1
  Li  Li2  1  0.37706300  0.25416700  0.20349800  1
  Li  Li3  1  0.61340300  0.55739300  0.40011600  1
  Li  Li4  1  0.36166700  0.47892100  0.60282300  1
  Li  Li5  1  0.58530100  0.11715900  0.56286700  1
  Li  Li6  1  0.59848600  0.72697400  0.82075600  1
  Li  Li7  1  0.37061600  0.06838900  0.79984100  1
  Mn  Mn0  1  0.00604700  0.98717200  0.99649400  1
  Mn  Mn1  1  0.03869600  0.60517300  0.20014400  1
  Mn  Mn2  1  0.98761100  0.80074100  0.60133300  1
  Mn  Mn3  1  0.99791000  0.40650500  0.80072400  1
  Mn  Mn4  1  0.99921400  0.18951300  0.39418200  1
  O  O0  1  0.78913300  0.68488600  0.00793700  1
  O  O1  1  0.22721900  0.28949900  0.99613900  1
  O  O2  1  0.21817200  0.94345700  0.18461600  1
  O  O3  1  0.75236800  0.27490900  0.22195500  1
  O  O4  1  0.78051400  0.88941100  0.40016900  1
  O  O5  1  0.22652900  0.48285900  0.38991000  1
  O  O6  1  0.73015000  0.48062500  0.60928400  1
  O  O7  1  0.21148300  0.14855600  0.59460400  1
  O  O8  1  0.23300100  0.73348400  0.78452500  1
  O  O9  1  0.75365500  0.07152100  0.82727700  1
loop_
_geom_bond_atom_site_label_1
_geom_bond_atom_site_label_2
_geom_bond_distance
_geom_bond_site_symmetry_2
Li0 O0 1.976508 1_555
Li0 O9 2.043168 1_554
Li0 O3 2.054975 1_555
Li0 O1 2.075424 1_554
Li0 Li2 2.298874 1_555
Li0 Li7 2.346208 1_554
Li1 O4 1.983804 1_555
Li1 O2 1.986230 1_555
Li1 O0 2.007869 1_555
Li1 O3 2.156887 1_565
Li1 Li2 2.274778 1_565
Li2 O2 1.839407 1_545
Li2 O1 1.938342 1_554
Li2 O5 1.943456 1_555
Li2 O3 1.957953 1_555
Li2 Li3 2.288861 1_555
Li3 O6 1.990113 1_555
Li3 O4 1.997911 1_555
Li3 O3 2.026125 1_555
Li3 O5 2.044300 1_555
Li3 Li4 2.324403 1_555
Li4 O5 1.900321 1_555
Li4 O6 1.923942 1_555
Li4 O8 1.936999 1_555
Li4 O7 1.937698 1_555
Li4 Li6 2.256613 1_555
Li4 Li5 2.290198 1_555
Li5 O4 1.941897 1_545
Li5 O7 1.991106 1_555
Li5 O6 2.042675 1_555
Li5 Li7 2.406507 1_555
Li5 O9 2.432078 1_555
Li6 O0 1.894113 1_556
Li6 O8 1.923103 1_555
Li6 O9 2.022154 1_565
Li6 O6 2.086021 1_555
Li6 Li7 2.292759 1_565
Li7 O8 1.923865 1_545
Li7 O1 1.965028 1_555
Li7 O9 2.003500 1_555
Li7 O7 2.040220 1_555
Mn0 O2 1.961187 1_556
Mn0 O1 1.995237 1_565
Mn0 O0 2.008495 1_456
Mn0 O9 2.048136 1_465
Mn0 O8 2.344698 1_555
Mn0 O3 2.571357 1_466
Mn1 O2 2.094289 1_555
Mn1 O5 2.105214 1_555
Mn1 O0 2.173290 1_455
Mn1 O1 2.364362 1_554
Mn1 O3 2.367579 1_455
Mn1 O4 2.454443 1_455
Mn2 O8 2.074651 1_655
Mn2 O4 2.138855 1_555
Mn2 O6 2.199076 1_555
Mn2 O7 2.225179 1_665
Mn2 O9 2.477036 1_565
Mn2 O5 2.539391 1_655
Mn3 O8 2.183620 1_655
Mn3 O6 2.211695 1_555
Mn3 O1 2.231590 1_655
Mn3 O9 2.274075 1_555
Mn3 O7 2.285316 1_655
Mn3 O0 2.328041 1_556
Mn4 O5 1.982092 1_655
Mn4 O4 1.990627 1_545
Mn4 O7 2.041307 1_655
Mn4 O3 2.051489 1_555
Mn4 O2 2.291839 1_645
Mn4 O6 2.575909 1_555
