# generated using pymatgen
data_Li3Sb3(PO4)4
_symmetry_space_group_name_H-M   'P 1'
_cell_length_a   9.08631200
_cell_length_b   7.86738900
_cell_length_c   10.51662990
_cell_angle_alpha   87.39043826
_cell_angle_beta   90.00000000
_cell_angle_gamma   90.00000000
_symmetry_Int_Tables_number   1
_chemical_formula_structural   Li3Sb3(PO4)4
_chemical_formula_sum   'Li6 Sb6 P8 O32'
_cell_volume   751.00746963
_cell_formula_units_Z   2
loop_
 _symmetry_equiv_pos_site_id
 _symmetry_equiv_pos_as_xyz
  1  'x, y, z'
loop_
 _atom_site_type_symbol
 _atom_site_label
 _atom_site_symmetry_multiplicity
 _atom_site_fract_x
 _atom_site_fract_y
 _atom_site_fract_z
 _atom_site_occupancy
  Li  Li0  1  0.62317200  0.14963600  0.15583000  1
  Li  Li1  1  0.12317200  0.85036400  0.84417000  1
  Li  Li2  1  0.87675500  0.62326400  0.41450400  1
  Li  Li3  1  0.88223300  0.64931300  0.90637300  1
  Li  Li4  1  0.37675500  0.37673600  0.58549600  1
  Li  Li5  1  0.38223300  0.35068700  0.09362700  1
  Sb  Sb0  1  0.03489100  0.26846700  0.62978800  1
  Sb  Sb1  1  0.99698300  0.26484800  0.11374400  1
  Sb  Sb2  1  0.63596900  0.12633800  0.66762400  1
  Sb  Sb3  1  0.13596900  0.87366200  0.33237600  1
  Sb  Sb4  1  0.53489100  0.73153300  0.37021200  1
  Sb  Sb5  1  0.49698300  0.73515200  0.88625600  1
  P  P0  1  0.79601000  0.03353600  0.38889600  1
  P  P1  1  0.80405700  0.03579000  0.90484700  1
  P  P2  1  0.29601000  0.96646400  0.61110400  1
  P  P3  1  0.30405700  0.96421000  0.09515300  1
  P  P4  1  0.70955800  0.54658200  0.63839800  1
  P  P5  1  0.69115000  0.54181800  0.13887200  1
  P  P6  1  0.19115000  0.45818200  0.86112800  1
  P  P7  1  0.20955800  0.45341800  0.36160200  1
  O  O0  1  0.82038300  0.17581100  0.78994400  1
  O  O1  1  0.85661100  0.16395700  0.29067900  1
  O  O2  1  0.79003200  0.12450200  0.52051800  1
  O  O3  1  0.39023900  0.12912300  0.59111800  1
  O  O4  1  0.81428600  0.13013200  0.03250000  1
  O  O5  1  0.41898200  0.10259500  0.10401400  1
  O  O6  1  0.13511300  0.01703100  0.65073100  1
  O  O7  1  0.64081700  0.97602000  0.88780800  1
  O  O8  1  0.14081700  0.02398000  0.11219200  1
  O  O9  1  0.63511300  0.98296900  0.34926900  1
  O  O10  1  0.89023900  0.87087700  0.40888200  1
  O  O11  1  0.29003200  0.87549800  0.47948200  1
  O  O12  1  0.91898200  0.89740500  0.89598600  1
  O  O13  1  0.35661100  0.83604300  0.70932100  1
  O  O14  1  0.31428600  0.86986800  0.96750000  1
  O  O15  1  0.32038300  0.82418900  0.21005600  1
  O  O16  1  0.63563700  0.68832000  0.54715900  1
  O  O17  1  0.72128300  0.60818400  0.77327900  1
  O  O18  1  0.62310000  0.69636300  0.05990700  1
  O  O19  1  0.08712500  0.60967600  0.85628600  1
  O  O20  1  0.71297500  0.60717700  0.28095100  1
  O  O21  1  0.09766600  0.61288800  0.36338700  1
  O  O22  1  0.35796600  0.50025900  0.42169400  1
  O  O23  1  0.85796600  0.49974100  0.57830600  1
  O  O24  1  0.34701100  0.49372200  0.91549400  1
  O  O25  1  0.84701100  0.50627800  0.08450600  1
  O  O26  1  0.59766600  0.38711200  0.63661300  1
  O  O27  1  0.21297500  0.39282300  0.71904900  1
  O  O28  1  0.58712500  0.39032400  0.14371400  1
  O  O29  1  0.22128300  0.39181600  0.22672100  1
  O  O30  1  0.13563700  0.31168000  0.45284100  1
  O  O31  1  0.12310000  0.30363700  0.94009300  1
loop_
_geom_bond_atom_site_label_1
_geom_bond_atom_site_label_2
_geom_bond_distance
_geom_bond_site_symmetry_2
Li0 O28 1.920211 1_555
Li0 O5 1.973460 1_555
Li0 O4 2.177022 1_555
Li0 O9 2.372065 1_545
Li0 O1 2.556849 1_555
Li1 O19 1.920211 1_555
Li1 O12 1.973460 1_455
Li1 O14 2.177022 1_555
Li1 O6 2.372065 1_565
Li1 O13 2.556849 1_555
Li2 O23 1.946436 1_555
Li2 O10 1.950125 1_555
Li2 O20 2.054145 1_555
Li2 O21 2.080569 1_655
Li2 O16 2.659542 1_555
Li3 O19 1.963578 1_655
Li3 O12 1.978302 1_555
Li3 O17 2.060059 1_555
Li3 O25 2.164777 1_556
Li4 O22 1.946436 1_555
Li4 O3 1.950125 1_555
Li4 O27 2.054145 1_555
Li4 O26 2.080569 1_555
Li4 O30 2.659542 1_555
Li5 O28 1.963578 1_555
Li5 O5 1.978302 1_555
Li5 O29 2.060059 1_555
Li5 O24 2.164777 1_554
O0 P1 1.604532 1_555
O0 Sb2 2.158629 1_555
O0 Sb0 2.656199 1_655
O1 P0 1.525263 1_555
O1 Sb1 2.363214 1_555
O2 P0 1.587891 1_555
O2 Sb2 2.086925 1_555
O2 Sb0 2.769827 1_655
O3 P2 1.546089 1_545
O3 Sb2 2.373086 1_555
O4 P1 1.566053 1_554
O4 Sb1 2.165994 1_555
O5 P3 1.514496 1_545
O6 P2 1.576188 1_545
O6 Sb0 2.179719 1_555
O7 P1 1.568736 1_565
O7 Sb5 2.302641 1_555
O7 Sb2 2.552082 1_565
O8 P3 1.568736 1_545
O8 Sb1 2.302641 1_455
O8 Sb3 2.552082 1_545
O9 P0 1.576188 1_565
O9 Sb4 2.179719 1_555
O10 P0 1.546089 1_565
O10 Sb3 2.373086 1_655
O11 P2 1.587891 1_555
O11 Sb3 2.086925 1_555
O11 Sb4 2.769827 1_555
O12 P1 1.514496 1_565
O13 P2 1.525263 1_555
O13 Sb5 2.363214 1_555
O14 P3 1.566053 1_556
O14 Sb5 2.165994 1_555
O15 P3 1.604532 1_555
O15 Sb3 2.158629 1_555
O15 Sb4 2.656199 1_555
O16 P4 1.586778 1_555
O16 Sb4 2.087785 1_555
O17 P4 1.523469 1_555
O17 Sb5 2.582875 1_555
O18 P5 1.567913 1_555
O18 Sb5 2.165790 1_554
O19 P6 1.520201 1_555
O20 P5 1.614406 1_555
O20 Sb4 2.130810 1_555
O21 P7 1.615611 1_555
O21 Sb3 2.091809 1_555
O22 P7 1.541036 1_555
O22 Sb4 2.469505 1_555
O23 P4 1.541036 1_555
O23 Sb0 2.469505 1_655
O24 P6 1.557324 1_555
O24 Sb5 2.346509 1_555
O25 P5 1.557324 1_555
O25 Sb1 2.346509 1_555
O26 P4 1.615611 1_555
O26 Sb2 2.091809 1_555
O27 P6 1.614406 1_555
O27 Sb0 2.130810 1_555
O28 P5 1.520201 1_555
O29 P7 1.523469 1_555
O29 Sb1 2.582875 1_455
O30 P7 1.586778 1_555
O30 Sb0 2.087785 1_555
O31 P6 1.567913 1_555
O31 Sb1 2.165790 1_456
