# generated using pymatgen
data_Li2VGa3O8
_symmetry_space_group_name_H-M   'P 1'
_cell_length_a   5.19017200
_cell_length_b   5.44754694
_cell_length_c   6.70815626
_cell_angle_alpha   89.85625008
_cell_angle_beta   89.64854404
_cell_angle_gamma   89.96638536
_symmetry_Int_Tables_number   1
_chemical_formula_structural   Li2VGa3O8
_chemical_formula_sum   'Li2 V1 Ga3 O8'
_cell_volume   189.66023888
_cell_formula_units_Z   1
loop_
 _symmetry_equiv_pos_site_id
 _symmetry_equiv_pos_as_xyz
  1  'x, y, z'
loop_
 _atom_site_type_symbol
 _atom_site_label
 _atom_site_symmetry_multiplicity
 _atom_site_fract_x
 _atom_site_fract_y
 _atom_site_fract_z
 _atom_site_occupancy
  Li  Li0  1  0.50741800  0.42948200  0.86911400  1
  Li  Li1  1  0.99398900  0.08243800  0.38461400  1
  V  V0  1  0.50060900  0.92661700  0.12372400  1
  Ga  Ga0  1  0.00241000  0.57309000  0.62535600  1
  Ga  Ga1  1  0.51702600  0.42438500  0.38942100  1
  Ga  Ga2  1  0.98856500  0.08754500  0.85495700  1
  O  O0  1  0.83346000  0.96864500  0.10106600  1
  O  O1  1  0.92966200  0.90445700  0.63442800  1
  O  O2  1  0.42949000  0.61366400  0.15317800  1
  O  O3  1  0.35519600  0.51484700  0.61667000  1
  O  O4  1  0.86537600  0.41528300  0.40349200  1
  O  O5  1  0.87987500  0.40368200  0.84936200  1
  O  O6  1  0.39119800  0.09781200  0.32658900  1
  O  O7  1  0.35152700  0.05805400  0.91781000  1
loop_
_geom_bond_atom_site_label_1
_geom_bond_atom_site_label_2
_geom_bond_distance
_geom_bond_site_symmetry_2
Li0 O3 1.928780 1_555
Li0 O5 1.941875 1_555
Li0 O2 2.191129 1_556
Li0 O7 2.202441 1_555
Li1 O4 1.935968 1_555
Li1 O1 1.960906 1_545
Li1 O6 2.097342 1_655
Li1 O0 2.173093 1_545
Ga0 O1 1.845063 1_455
Ga0 O3 1.858709 1_555
Ga0 O4 1.865481 1_455
Ga0 O5 1.869799 1_455
Ga1 O3 1.805481 1_555
Ga1 O4 1.811680 1_555
Ga1 O6 1.943598 1_555
Ga1 O2 1.944512 1_555
Ga2 O5 1.812266 1_555
Ga2 O1 1.813835 1_545
Ga2 O7 1.939449 1_655
Ga2 O0 1.942197 1_546
O0 V0 1.748437 1_555
O2 V0 1.754957 1_555
O6 V0 1.743667 1_545
O7 V0 1.739791 1_546
