# generated using pymatgen
data_LuAlO3
_symmetry_space_group_name_H-M   'P 1'
_cell_length_a   3.38959306
_cell_length_b   3.38959306
_cell_length_c   11.46932700
_cell_angle_alpha   90.00000000
_cell_angle_beta   90.00000000
_cell_angle_gamma   120.00002061
_symmetry_Int_Tables_number   1
_chemical_formula_structural   LuAlO3
_chemical_formula_sum   'Lu2 Al2 O6'
_cell_volume   114.12048248
_cell_formula_units_Z   2
loop_
 _symmetry_equiv_pos_site_id
 _symmetry_equiv_pos_as_xyz
  1  'x, y, z'
loop_
 _atom_site_type_symbol
 _atom_site_label
 _atom_site_symmetry_multiplicity
 _atom_site_fract_x
 _atom_site_fract_y
 _atom_site_fract_z
 _atom_site_occupancy
  Lu  Lu0  1  0.00000000  0.00000000  0.00000000  1
  Lu  Lu1  1  0.00000000  0.00000000  0.50000000  1
  Al  Al0  1  0.33333300  0.66666700  0.25000000  1
  Al  Al1  1  0.66666700  0.33333300  0.75000000  1
  O  O0  1  0.33333300  0.66666700  0.08986300  1
  O  O1  1  0.33333300  0.66666700  0.41013700  1
  O  O2  1  0.00000000  0.00000000  0.25000000  1
  O  O3  1  0.00000000  0.00000000  0.75000000  1
  O  O4  1  0.66666700  0.33333300  0.91013700  1
  O  O5  1  0.66666700  0.33333300  0.58986300  1
loop_
_geom_bond_atom_site_label_1
_geom_bond_atom_site_label_2
_geom_bond_distance
_geom_bond_site_symmetry_2
Lu0 O4 2.211798 1_454
Lu0 O0 2.211798 1_545
Lu0 O0 2.211800 1_555
Lu0 O0 2.211800 1_445
Lu0 O4 2.211800 1_554
Lu0 O4 2.211800 1_444
Lu1 O1 2.211798 1_545
Lu1 O5 2.211798 1_455
Lu1 O1 2.211800 1_555
Lu1 O5 2.211800 1_555
Lu1 O1 2.211800 1_445
Lu1 O5 2.211800 1_445
Al0 O1 1.836664 1_555
Al0 O0 1.836664 1_555
Al0 O2 1.956981 1_565
Al0 O2 1.956983 1_665
Al0 O2 1.956983 1_555
Al1 O4 1.836664 1_555
Al1 O5 1.836664 1_555
Al1 O3 1.956981 1_655
Al1 O3 1.956983 1_665
Al1 O3 1.956983 1_555
