# generated using pymatgen
data_LiVFeP2(HO5)2
_symmetry_space_group_name_H-M   'P 1'
_cell_length_a   5.30510900
_cell_length_b   7.41785468
_cell_length_c   14.72749824
_cell_angle_alpha   95.80045703
_cell_angle_beta   92.14622567
_cell_angle_gamma   110.15595080
_symmetry_Int_Tables_number   1
_chemical_formula_structural   LiVFeP2(HO5)2
_chemical_formula_sum   'Li3 V3 Fe3 P6 H6 O30'
_cell_volume   539.66185316
_cell_formula_units_Z   3
loop_
 _symmetry_equiv_pos_site_id
 _symmetry_equiv_pos_as_xyz
  1  'x, y, z'
loop_
 _atom_site_type_symbol
 _atom_site_label
 _atom_site_symmetry_multiplicity
 _atom_site_fract_x
 _atom_site_fract_y
 _atom_site_fract_z
 _atom_site_occupancy
  Li  Li0  1  0.07860900  0.48931500  0.64331900  1
  Li  Li1  1  0.58748800  0.17726900  0.02176900  1
  Li  Li2  1  0.74618000  0.15505800  0.31106000  1
  V  V0  1  0.33326500  0.33321100  0.83305800  1
  V  V1  1  0.66652100  0.66668400  0.16629900  1
  V  V2  1  0.99948500  0.99673100  0.50162300  1
  Fe  Fe0  1  0.33470300  0.33967900  0.33435600  1
  Fe  Fe1  1  0.66693900  0.67318300  0.66826000  1
  Fe  Fe2  1  0.99716600  0.99135900  0.99730200  1
  P  P0  1  0.01986700  0.37519600  0.15050000  1
  P  P1  1  0.31243400  0.95738300  0.18200700  1
  P  P2  1  0.35471700  0.71010000  0.48433400  1
  P  P3  1  0.64292700  0.28732000  0.51636600  1
  P  P4  1  0.69069700  0.04654100  0.81663200  1
  P  P5  1  0.97518800  0.61913900  0.84940800  1
  H  H0  1  0.04512900  0.98381100  0.33203800  1
  H  H1  1  0.28856000  0.34883700  0.00183000  1
  H  H2  1  0.37621400  0.31723200  0.66412900  1
  H  H3  1  0.64351300  0.67933300  0.33596200  1
  H  H4  1  0.68935800  0.65323300  0.99660600  1
  H  H5  1  0.97707600  0.01301700  0.67061800  1
  O  O0  1  0.06825800  0.82645300  0.89787100  1
  O  O1  1  0.03284000  0.83692600  0.21395700  1
  O  O2  1  0.14897200  0.80686600  0.45770000  1
  O  O3  1  0.30095900  0.97180900  0.07887800  1
  O  O4  1  0.03132600  0.36081300  0.25383100  1
  O  O5  1  0.18455300  0.52480500  0.87570300  1
  O  O6  1  0.36653700  0.69683400  0.58788500  1
  O  O7  1  0.04382800  0.09281000  0.37650100  1
  O  O8  1  0.26503700  0.50613800  0.43203800  1
  O  O9  1  0.29979800  0.49647600  0.11895500  1
  O  O10  1  0.28752400  0.23936400  0.95719400  1
  O  O11  1  0.52782500  0.87008600  0.21102000  1
  O  O12  1  0.37893200  0.42702300  0.70918600  1
  O  O13  1  0.59796200  0.83915200  0.76835400  1
  O  O14  1  0.63474300  0.83203500  0.45211300  1
  O  O15  1  0.36382700  0.17198900  0.55084800  1
  O  O16  1  0.41137900  0.16044600  0.23750900  1
  O  O17  1  0.60287000  0.57208300  0.28574900  1
  O  O18  1  0.48157700  0.14133100  0.79067700  1
  O  O19  1  0.73086900  0.76087300  0.04700300  1
  O  O20  1  0.69736300  0.50299700  0.88515600  1
  O  O21  1  0.74369400  0.49348900  0.56814900  1
  O  O22  1  0.93409300  0.90511500  0.62016300  1
  O  O23  1  0.61763100  0.28246500  0.41172700  1
  O  O24  1  0.80475900  0.46305000  0.12195000  1
  O  O25  1  0.94794600  0.61337700  0.74452600  1
  O  O26  1  0.71737600  0.05206500  0.92147600  1
  O  O27  1  0.86042100  0.20183700  0.54522400  1
  O  O28  1  0.96888600  0.16294800  0.78120100  1
  O  O29  1  0.92182000  0.17248400  0.09520800  1
loop_
_geom_bond_atom_site_label_1
_geom_bond_atom_site_label_2
_geom_bond_distance
_geom_bond_site_symmetry_2
Li0 O25 1.946490 1_455
Li0 O6 2.023937 1_555
Li0 O12 2.043318 1_555
Li0 O21 2.069044 1_455
Li0 O27 2.350609 1_455
Li1 O26 1.938838 1_554
Li1 O3 2.024625 1_545
Li1 O10 2.032072 1_554
Li1 O29 2.055339 1_555
Li1 O24 2.357083 1_555
Li2 O23 1.947556 1_555
Li2 O4 2.023014 1_655
Li2 O7 2.028286 1_655
Li2 O16 2.059919 1_555
Li2 O11 2.352915 1_545
Fe0 O8 1.930316 1_555
Fe0 O16 2.000083 1_555
Fe0 O4 2.022334 1_555
Fe0 O23 2.034718 1_555
Fe0 O17 2.035657 1_555
Fe0 O7 2.115178 1_555
Fe1 O13 1.951078 1_555
Fe1 O6 2.016212 1_555
Fe1 O22 2.027678 1_555
Fe1 O25 2.027778 1_555
Fe1 O21 2.034241 1_555
Fe1 O12 2.097795 1_555
Fe2 O0 1.944273 1_655
Fe2 O29 2.016364 1_566
Fe2 O26 2.022665 1_565
Fe2 O3 2.028080 1_656
Fe2 O19 2.029917 1_556
Fe2 O10 2.107354 1_665
H0 O7 0.989823 1_565
H0 O1 1.942995 1_555
H1 O10 0.990131 1_554
H1 O9 1.934910 1_555
H2 O12 0.992858 1_555
H2 O15 1.878336 1_555
H3 O17 0.988542 1_555
H3 O14 1.965209 1_555
H4 O19 0.991825 1_556
H4 O20 1.898943 1_555
H5 O22 0.993032 1_545
H5 O28 1.887767 1_555
O0 P5 1.531859 1_455
O1 P1 1.563268 1_555
O1 V1 1.972673 1_455
O2 P2 1.557319 1_555
O2 V2 1.911788 1_455
O3 P1 1.533761 1_555
O4 P0 1.536663 1_555
O5 P5 1.559319 1_455
O5 V0 1.914713 1_555
O6 P2 1.538443 1_555
O7 V2 2.035027 1_445
O8 P2 1.532825 1_555
O9 P0 1.563979 1_555
O9 V1 1.973047 1_555
O10 V0 2.014925 1_555
O11 P1 1.561057 1_555
O11 V1 1.962703 1_555
O12 V0 2.011127 1_555
O13 P4 1.531446 1_565
O14 P2 1.569636 1_555
O14 V2 1.963044 1_555
O15 P3 1.566304 1_555
O15 V2 1.981036 1_445
O16 P1 1.544894 1_545
O17 V1 1.957540 1_555
O18 P4 1.559310 1_555
O18 V0 1.914038 1_555
O19 V1 1.954526 1_555
O20 P5 1.570503 1_555
O20 V0 1.980673 1_555
O21 P3 1.541604 1_555
O22 V2 1.937190 1_555
O23 P3 1.537585 1_555
O24 P0 1.560682 1_655
O24 V1 1.961124 1_555
O25 P5 1.540887 1_555
O26 P4 1.540380 1_555
O27 P3 1.560767 1_555
O27 V2 1.970522 1_545
O28 P4 1.570503 1_555
O28 V0 1.981691 1_655
O29 P0 1.541589 1_655
