# generated using pymatgen
data_ZnH12(IN2)2
_symmetry_space_group_name_H-M   'P 1'
_cell_length_a   7.80317000
_cell_length_b   12.23996300
_cell_length_c   12.43115700
_cell_angle_alpha   90.00000000
_cell_angle_beta   90.00000000
_cell_angle_gamma   90.00000000
_symmetry_Int_Tables_number   1
_chemical_formula_structural   ZnH12(IN2)2
_chemical_formula_sum   'Zn4 H48 I8 N16'
_cell_volume   1187.30617085
_cell_formula_units_Z   4
loop_
 _symmetry_equiv_pos_site_id
 _symmetry_equiv_pos_as_xyz
  1  'x, y, z'
loop_
 _atom_site_type_symbol
 _atom_site_label
 _atom_site_symmetry_multiplicity
 _atom_site_fract_x
 _atom_site_fract_y
 _atom_site_fract_z
 _atom_site_occupancy
  Zn  Zn0  1  0.25000000  0.10054300  0.28195800  1
  Zn  Zn1  1  0.25000000  0.39945700  0.78195800  1
  Zn  Zn2  1  0.75000000  0.89945700  0.71804200  1
  Zn  Zn3  1  0.75000000  0.60054300  0.21804200  1
  H  H0  1  0.14388300  0.91182000  0.19829200  1
  H  H1  1  0.35611700  0.58818000  0.69829200  1
  H  H2  1  0.64388300  0.08818000  0.80170800  1
  H  H3  1  0.85611700  0.41182000  0.30170800  1
  H  H4  1  0.85611700  0.08818000  0.80170800  1
  H  H5  1  0.64388300  0.41182000  0.30170800  1
  H  H6  1  0.35611700  0.91182000  0.19829200  1
  H  H7  1  0.14388300  0.58818000  0.69829200  1
  H  H8  1  0.25000000  0.90048600  0.31142200  1
  H  H9  1  0.25000000  0.59951400  0.81142200  1
  H  H10  1  0.75000000  0.09951400  0.68857800  1
  H  H11  1  0.75000000  0.40048600  0.18857800  1
  H  H12  1  0.14325600  0.14079900  0.47605300  1
  H  H13  1  0.35674400  0.35920100  0.97605300  1
  H  H14  1  0.64325600  0.85920100  0.52394700  1
  H  H15  1  0.85674400  0.64079900  0.02394700  1
  H  H16  1  0.85674400  0.85920100  0.52394700  1
  H  H17  1  0.64325600  0.64079900  0.02394700  1
  H  H18  1  0.35674400  0.14079900  0.47605300  1
  H  H19  1  0.14325600  0.35920100  0.97605300  1
  H  H20  1  0.25000000  0.02184100  0.48318600  1
  H  H21  1  0.25000000  0.47815900  0.98318600  1
  H  H22  1  0.75000000  0.97815900  0.51681400  1
  H  H23  1  0.75000000  0.52184100  0.01681400  1
  H  H24  1  0.79802800  0.09293000  0.22026900  1
  H  H25  1  0.70197200  0.40707000  0.72026900  1
  H  H26  1  0.29802800  0.90707000  0.77973100  1
  H  H27  1  0.20197200  0.59293000  0.27973100  1
  H  H28  1  0.20197200  0.90707000  0.77973100  1
  H  H29  1  0.29802800  0.59293000  0.27973100  1
  H  H30  1  0.70197200  0.09293000  0.22026900  1
  H  H31  1  0.79802800  0.40707000  0.72026900  1
  H  H32  1  0.00486000  0.31225800  0.30321200  1
  H  H33  1  0.49514000  0.18774200  0.80321200  1
  H  H34  1  0.50486000  0.68774200  0.69678800  1
  H  H35  1  0.99514000  0.81225800  0.19678800  1
  H  H36  1  0.99514000  0.68774200  0.69678800  1
  H  H37  1  0.50486000  0.81225800  0.19678800  1
  H  H38  1  0.49514000  0.31225800  0.30321200  1
  H  H39  1  0.00486000  0.18774200  0.80321200  1
  H  H40  1  0.03881100  0.17912400  0.13583900  1
  H  H41  1  0.46118900  0.32087600  0.63583900  1
  H  H42  1  0.53881100  0.82087600  0.86416100  1
  H  H43  1  0.96118900  0.67912400  0.36416100  1
  H  H44  1  0.96118900  0.82087600  0.86416100  1
  H  H45  1  0.53881100  0.67912400  0.36416100  1
  H  H46  1  0.46118900  0.17912400  0.13583900  1
  H  H47  1  0.03881100  0.32087600  0.63583900  1
  I  I0  1  0.25000000  0.18380400  0.78892300  1
  I  I1  1  0.25000000  0.31619600  0.28892300  1
  I  I2  1  0.75000000  0.81619600  0.21107700  1
  I  I3  1  0.75000000  0.68380400  0.71107700  1
  I  I4  1  0.25000000  0.81107900  0.49645300  1
  I  I5  1  0.25000000  0.68892100  0.99645300  1
  I  I6  1  0.75000000  0.18892100  0.50354700  1
  I  I7  1  0.75000000  0.31107900  0.00354700  1
  N  N0  1  0.25000000  0.94334700  0.23867900  1
  N  N1  1  0.25000000  0.55665300  0.73867900  1
  N  N2  1  0.75000000  0.05665300  0.76132100  1
  N  N3  1  0.75000000  0.44334700  0.26132100  1
  N  N4  1  0.25000000  0.09946900  0.44938000  1
  N  N5  1  0.25000000  0.40053100  0.94938000  1
  N  N6  1  0.75000000  0.90053100  0.55062000  1
  N  N7  1  0.75000000  0.59946900  0.05062000  1
  N  N8  1  0.17883700  0.02993100  0.01148700  1
  N  N9  1  0.32116300  0.47006900  0.51148700  1
  N  N10  1  0.67883700  0.97006900  0.98851300  1
  N  N11  1  0.82116300  0.52993100  0.48851300  1
  N  N12  1  0.82116300  0.97006900  0.98851300  1
  N  N13  1  0.67883700  0.52993100  0.48851300  1
  N  N14  1  0.32116300  0.02993100  0.01148700  1
  N  N15  1  0.17883700  0.47006900  0.51148700  1
loop_
_geom_bond_atom_site_label_1
_geom_bond_atom_site_label_2
_geom_bond_distance
_geom_bond_site_symmetry_2
H0 N0 1.042419 1_555
H0 H35 1.683024 1_455
H1 N1 1.042419 1_555
H1 H34 1.683024 1_555
H2 N2 1.042419 1_555
H2 H33 1.683024 1_555
H3 N3 1.042419 1_555
H3 H32 1.683024 1_655
H4 N2 1.042419 1_555
H5 N3 1.042419 1_555
H6 N0 1.042419 1_555
H7 N1 1.042419 1_555
H8 N0 1.045440 1_555
H8 I4 2.547207 1_555
H9 N1 1.045440 1_555
H9 I5 2.547207 1_555
H10 N2 1.045440 1_555
H10 I6 2.547207 1_555
H11 N3 1.045440 1_555
H11 I7 2.547207 1_555
H12 N4 1.029391 1_555
H12 H47 3.077000 1_555
H12 I6 3.143298 1_455
H13 N5 1.029391 1_555
H13 H46 3.077000 1_556
H13 I7 3.143298 1_556
H14 N6 1.029391 1_555
H14 H45 3.077000 1_555
H14 I4 3.143298 1_555
H15 N7 1.029391 1_555
H15 H44 3.077000 1_554
H15 I5 3.143298 1_654
H16 N6 1.029391 1_555
H16 H43 3.077000 1_555
H16 I4 3.143298 1_655
H17 N7 1.029391 1_555
H17 H42 3.077000 1_554
H17 I5 3.143298 1_554
H18 N4 1.029391 1_555
H18 H41 3.077000 1_555
H18 I6 3.143298 1_555
H19 N5 1.029391 1_555
H19 H40 3.077000 1_556
H19 I7 3.143298 1_456
H20 N4 1.038951 1_555
H20 I4 2.584986 1_545
H21 N5 1.038951 1_555
H21 I5 2.584986 1_555
H22 N6 1.038951 1_555
H22 I6 2.584986 1_565
H23 N7 1.038951 1_555
H23 I7 2.584986 1_555
H24 H30 0.749541 1_555
H24 H40 2.396828 1_655
H25 H31 0.749541 1_555
H25 H41 2.396828 1_555
H26 H28 0.749541 1_555
H26 H42 2.396828 1_555
H27 H29 0.749541 1_555
H27 H43 2.396828 1_455
H28 H44 2.396828 1_455
H29 H45 2.396828 1_555
H30 H46 2.396828 1_555
H31 H47 2.396828 1_655
H32 I1 1.921703 1_555
H32 H40 2.656068 1_555
H32 I6 3.526482 1_455
H33 I0 1.921703 1_555
H33 H41 2.656068 1_555
H33 I7 3.526482 1_556
H34 I3 1.921703 1_555
H34 H42 2.656068 1_555
H34 I4 3.526482 1_555
H35 I2 1.921703 1_555
H35 H43 2.656068 1_555
H35 I5 3.526482 1_654
H36 H7 1.683024 1_655
H36 I3 1.921703 1_555
H36 H44 2.656068 1_555
H36 I4 3.526482 1_655
H37 H6 1.683024 1_555
H37 I2 1.921703 1_555
H37 H45 2.656068 1_555
H37 I5 3.526482 1_554
H38 H5 1.683024 1_555
H38 I1 1.921703 1_555
H38 H46 2.656068 1_555
H38 I6 3.526482 1_555
H39 H4 1.683024 1_455
H39 I0 1.921703 1_555
H39 H47 2.656068 1_555
H39 I7 3.526482 1_456
H40 N8 2.630247 1_555
H40 Zn0 2.634434 1_555
H40 I7 3.223670 1_455
H41 N9 2.630247 1_555
H41 Zn1 2.634434 1_555
H41 I6 3.223670 1_555
H42 N10 2.630247 1_555
H42 Zn2 2.634434 1_555
H42 I5 3.223670 1_555
H43 N11 2.630247 1_555
H43 Zn3 2.634434 1_555
H43 I4 3.223670 1_655
H44 N12 2.630247 1_555
H44 Zn2 2.634434 1_555
H44 I5 3.223670 1_655
H45 N13 2.630247 1_555
H45 Zn3 2.634434 1_555
H45 I4 3.223670 1_555
H46 N14 2.630247 1_555
H46 Zn0 2.634434 1_555
H46 I7 3.223670 1_555
H47 N15 2.630247 1_555
H47 Zn1 2.634434 1_555
H47 I6 3.223670 1_455
I0 Zn1 2.641004 1_555
I1 Zn0 2.641004 1_555
I2 Zn3 2.641004 1_555
I3 Zn2 2.641004 1_555
N0 Zn0 1.997876 1_565
N1 Zn1 1.997876 1_555
N2 Zn2 1.997876 1_545
N3 Zn3 1.997876 1_555
N4 Zn0 2.081291 1_555
N5 Zn1 2.081291 1_555
N6 Zn2 2.081291 1_555
N7 Zn3 2.081291 1_555
N10 N12 1.110594 1_555
N11 N13 1.110594 1_555
N14 N8 1.110594 1_555
N15 N9 1.110594 1_555
