# generated using pymatgen
data_LiFePH2O5
_symmetry_space_group_name_H-M   'P 1'
_cell_length_a   5.11479900
_cell_length_b   8.16108600
_cell_length_c   11.15119200
_cell_angle_alpha   90.00000000
_cell_angle_beta   90.00000000
_cell_angle_gamma   90.00000000
_symmetry_Int_Tables_number   1
_chemical_formula_structural   LiFePH2O5
_chemical_formula_sum   'Li4 Fe4 P4 H8 O20'
_cell_volume   465.47656364
_cell_formula_units_Z   4
loop_
 _symmetry_equiv_pos_site_id
 _symmetry_equiv_pos_as_xyz
  1  'x, y, z'
loop_
 _atom_site_type_symbol
 _atom_site_label
 _atom_site_symmetry_multiplicity
 _atom_site_fract_x
 _atom_site_fract_y
 _atom_site_fract_z
 _atom_site_occupancy
  Li  Li0  1  0.69708000  0.31734700  0.18759200  1
  Li  Li1  1  0.19708000  0.81734700  0.31240800  1
  Li  Li2  1  0.69708000  0.18265300  0.68759200  1
  Li  Li3  1  0.19708000  0.68265300  0.81240800  1
  Fe  Fe0  1  0.18753600  0.12834200  0.12258000  1
  Fe  Fe1  1  0.68753600  0.62834200  0.37742000  1
  Fe  Fe2  1  0.18753600  0.37165800  0.62258000  1
  Fe  Fe3  1  0.68753600  0.87165800  0.87742000  1
  P  P0  1  0.69541400  0.91605700  0.16966200  1
  P  P1  1  0.19541400  0.41605700  0.33033800  1
  P  P2  1  0.69541400  0.58394300  0.66966200  1
  P  P3  1  0.19541400  0.08394300  0.83033800  1
  H  H0  1  0.36407500  0.55613500  0.00243800  1
  H  H1  1  0.15022700  0.68234000  0.04051200  1
  H  H2  1  0.65022700  0.18234000  0.45948800  1
  H  H3  1  0.86407500  0.05613500  0.49756200  1
  H  H4  1  0.36407500  0.94386500  0.50243800  1
  H  H5  1  0.15022700  0.81766000  0.54051200  1
  H  H6  1  0.65022700  0.31766000  0.95948800  1
  H  H7  1  0.86407500  0.44386500  0.99756200  1
  O  O0  1  0.68698800  0.40493600  0.01752600  1
  O  O1  1  0.64728200  0.82656400  0.04954300  1
  O  O2  1  0.57359700  0.09109300  0.16642300  1
  O  O3  1  0.99525500  0.93248900  0.19337200  1
  O  O4  1  0.06881700  0.31655700  0.22694300  1
  O  O5  1  0.56881700  0.81655700  0.27305700  1
  O  O6  1  0.49525500  0.43248900  0.30662800  1
  O  O7  1  0.07359700  0.59109300  0.33357700  1
  O  O8  1  0.14728200  0.32656400  0.45045700  1
  O  O9  1  0.18698800  0.90493600  0.48247400  1
  O  O10  1  0.68698800  0.09506400  0.51752600  1
  O  O11  1  0.64728200  0.67343600  0.54954300  1
  O  O12  1  0.57359700  0.40890700  0.66642300  1
  O  O13  1  0.99525500  0.56751100  0.69337200  1
  O  O14  1  0.06881700  0.18344300  0.72694300  1
  O  O15  1  0.56881700  0.68344300  0.77305700  1
  O  O16  1  0.49525500  0.06751100  0.80662800  1
  O  O17  1  0.07359700  0.90890700  0.83357700  1
  O  O18  1  0.14728200  0.17343600  0.95045700  1
  O  O19  1  0.18698800  0.59506400  0.98247400  1
loop_
_geom_bond_atom_site_label_1
_geom_bond_atom_site_label_2
_geom_bond_distance
_geom_bond_site_symmetry_2
Li0 O6 1.926294 1_555
Li0 O4 1.951350 1_655
Li0 O2 1.965735 1_555
Li0 O0 2.027341 1_555
Li1 O3 1.926294 1_455
Li1 O5 1.951350 1_555
Li1 O7 1.965735 1_555
Li1 O9 2.027341 1_555
Li2 O16 1.926294 1_555
Li2 O14 1.951350 1_655
Li2 O12 1.965735 1_555
Li2 O10 2.027341 1_555
Li3 O13 1.926294 1_455
Li3 O15 1.951350 1_555
Li3 O17 1.965735 1_555
Li3 O19 2.027341 1_555
Fe0 O18 1.965155 1_554
Fe0 O4 2.020520 1_555
Fe0 O3 2.035977 1_445
Fe0 O2 2.056837 1_555
Fe1 O11 1.965155 1_555
Fe1 O5 2.020520 1_555
Fe1 O6 2.035977 1_555
Fe1 O7 2.056837 1_655
Fe2 O8 1.965155 1_555
Fe2 O14 2.020520 1_555
Fe2 O13 2.035977 1_455
Fe2 O12 2.056837 1_555
Fe3 O1 1.965155 1_556
Fe3 O15 2.020520 1_555
Fe3 O16 2.035977 1_565
Fe3 O17 2.056837 1_655
H0 O19 0.985345 1_554
H1 O19 0.980580 1_554
H2 O10 0.980580 1_555
H3 O10 0.985345 1_555
H4 O9 0.985345 1_555
H5 O9 0.980580 1_555
H6 O0 0.980580 1_556
H7 O0 0.985345 1_556
O1 P0 1.545384 1_555
O2 P0 1.558873 1_545
O3 P0 1.562017 1_555
O4 P1 1.551782 1_555
O5 P0 1.551782 1_555
O6 P1 1.562017 1_555
O7 P1 1.558873 1_555
O8 P1 1.545384 1_555
O11 P2 1.545384 1_555
O12 P2 1.558873 1_555
O13 P2 1.562017 1_555
O14 P3 1.551782 1_555
O15 P2 1.551782 1_555
O16 P3 1.562017 1_555
O17 P3 1.558873 1_565
O18 P3 1.545384 1_555
