# generated using pymatgen
data_SrP2(H2O3)3
_symmetry_space_group_name_H-M   'P 1'
_cell_length_a   6.73556600
_cell_length_b   7.37824734
_cell_length_c   8.67295359
_cell_angle_alpha   102.03279142
_cell_angle_beta   110.00499275
_cell_angle_gamma   95.92784181
_symmetry_Int_Tables_number   1
_chemical_formula_structural   SrP2(H2O3)3
_chemical_formula_sum   'Sr2 P4 H12 O18'
_cell_volume   388.89790181
_cell_formula_units_Z   2
loop_
 _symmetry_equiv_pos_site_id
 _symmetry_equiv_pos_as_xyz
  1  'x, y, z'
loop_
 _atom_site_type_symbol
 _atom_site_label
 _atom_site_symmetry_multiplicity
 _atom_site_fract_x
 _atom_site_fract_y
 _atom_site_fract_z
 _atom_site_occupancy
  Sr  Sr0  1  0.39862500  0.74873700  0.30887900  1
  Sr  Sr1  1  0.60137500  0.25126300  0.69112100  1
  P  P0  1  0.76183000  0.80129700  0.76141000  1
  P  P1  1  0.23817000  0.19870300  0.23859000  1
  P  P2  1  0.15732700  0.09463600  0.87242800  1
  P  P3  1  0.84267300  0.90536400  0.12757200  1
  H  H0  1  0.27793500  0.47640800  0.74426900  1
  H  H1  1  0.72206500  0.52359200  0.25573100  1
  H  H2  1  0.24929200  0.51350400  0.56751400  1
  H  H3  1  0.75070800  0.48649600  0.43248600  1
  H  H4  1  0.18378900  0.67774700  0.91941200  1
  H  H5  1  0.81621100  0.32225300  0.08058800  1
  H  H6  1  0.16710000  0.46829400  0.93720400  1
  H  H7  1  0.83290000  0.53170600  0.06279600  1
  H  H8  1  0.97515500  0.28856700  0.53633000  1
  H  H9  1  0.02484500  0.71143300  0.46367000  1
  H  H10  1  0.22603200  0.85773200  0.60945200  1
  H  H11  1  0.77396800  0.14226800  0.39054800  1
  O  O0  1  0.97996800  0.11940200  0.17528300  1
  O  O1  1  0.02003200  0.88059800  0.82471700  1
  O  O2  1  0.29483800  0.11700100  0.07227400  1
  O  O3  1  0.70516200  0.88299900  0.92772600  1
  O  O4  1  0.26256100  0.40830200  0.27649600  1
  O  O5  1  0.73743900  0.59169800  0.72350400  1
  O  O6  1  0.35806600  0.10520800  0.37080000  1
  O  O7  1  0.64193400  0.89479200  0.62920000  1
  O  O8  1  0.99022100  0.76462100  0.14395100  1
  O  O9  1  0.00977900  0.23537900  0.85604900  1
  O  O10  1  0.69194300  0.91794500  0.22032500  1
  O  O11  1  0.30805700  0.08205500  0.77967500  1
  O  O12  1  0.26069500  0.41201800  0.62705700  1
  O  O13  1  0.73930500  0.58798200  0.37294300  1
  O  O14  1  0.27031900  0.58817800  0.96400000  1
  O  O15  1  0.72968100  0.41182200  0.03600000  1
  O  O16  1  0.18426500  0.74456800  0.51241700  1
  O  O17  1  0.81573500  0.25543200  0.48758300  1
loop_
_geom_bond_atom_site_label_1
_geom_bond_atom_site_label_2
_geom_bond_distance
_geom_bond_site_symmetry_2
H0 O12 0.989487 1_555
H1 O13 0.989487 1_555
H2 O12 0.989562 1_555
H3 O13 0.989562 1_555
H4 O14 0.978711 1_555
H4 O1 2.089226 1_555
H5 O15 0.978711 1_555
H5 O0 2.089226 1_555
H6 O14 0.998242 1_555
H6 O9 1.783468 1_555
H7 O15 0.998242 1_555
H7 O8 1.783468 1_555
H8 O17 0.991763 1_555
H9 O16 0.991763 1_555
H10 O16 0.990485 1_555
H10 O11 1.859691 1_565
H11 O17 0.990485 1_555
H11 O10 1.859691 1_545
O0 P1 1.634302 1_655
O0 P3 1.638423 1_545
O1 P0 1.634302 1_455
O1 P2 1.638423 1_565
O2 P2 1.624826 1_554
O2 P1 1.628319 1_555
O3 P3 1.624826 1_556
O3 P0 1.628319 1_555
O4 P1 1.491724 1_555
O4 Sr0 2.506446 1_555
O5 P0 1.491724 1_555
O5 Sr1 2.506446 1_555
O6 P1 1.501377 1_555
O6 Sr1 2.614751 1_555
O6 Sr0 2.634483 1_545
O7 P0 1.501377 1_555
O7 Sr0 2.614751 1_555
O7 Sr1 2.634483 1_565
O8 P3 1.504754 1_555
O8 Sr0 2.659164 1_655
O9 P2 1.504754 1_555
O9 Sr1 2.659164 1_455
O10 P3 1.494527 1_555
O10 Sr0 2.642017 1_555
O11 P2 1.494527 1_555
O11 Sr1 2.642017 1_555
O12 Sr1 2.635460 1_555
O13 Sr0 2.635460 1_555
O14 Sr0 2.763971 1_556
O15 Sr1 2.763971 1_554
O16 Sr0 2.638020 1_555
O17 Sr1 2.638020 1_555
