# generated using pymatgen
data_Li3FeB8O15
_symmetry_space_group_name_H-M   'P 1'
_cell_length_a   11.46482300
_cell_length_b   9.24305900
_cell_length_c   11.99451359
_cell_angle_alpha   89.09882777
_cell_angle_beta   90.00000000
_cell_angle_gamma   90.00000000
_symmetry_Int_Tables_number   1
_chemical_formula_structural   Li3FeB8O15
_chemical_formula_sum   'Li12 Fe4 B32 O60'
_cell_volume   1270.90181382
_cell_formula_units_Z   4
loop_
 _symmetry_equiv_pos_site_id
 _symmetry_equiv_pos_as_xyz
  1  'x, y, z'
loop_
 _atom_site_type_symbol
 _atom_site_label
 _atom_site_symmetry_multiplicity
 _atom_site_fract_x
 _atom_site_fract_y
 _atom_site_fract_z
 _atom_site_occupancy
  Li  Li0  1  0.07965300  0.07309100  0.57742200  1
  Li  Li1  1  0.65977300  0.11091100  0.55227900  1
  Li  Li2  1  0.42034700  0.07309100  0.07742200  1
  Li  Li3  1  0.84022700  0.11091100  0.05227900  1
  Li  Li4  1  0.16720700  0.48250100  0.71746900  1
  Li  Li5  1  0.33279300  0.48250100  0.21746900  1
  Li  Li6  1  0.66720700  0.51749900  0.78253100  1
  Li  Li7  1  0.83279300  0.51749900  0.28253100  1
  Li  Li8  1  0.15977300  0.88908900  0.94772100  1
  Li  Li9  1  0.57965300  0.92690900  0.92257800  1
  Li  Li10  1  0.34022700  0.88908900  0.44772100  1
  Li  Li11  1  0.92034700  0.92690900  0.42257800  1
  Fe  Fe0  1  0.16147300  0.24580500  0.96922500  1
  Fe  Fe1  1  0.33852700  0.24580500  0.46922500  1
  Fe  Fe2  1  0.66147300  0.75419500  0.53077500  1
  Fe  Fe3  1  0.83852700  0.75419500  0.03077500  1
  B  B0  1  0.33940900  0.10108100  0.87684900  1
  B  B1  1  0.16059100  0.10108100  0.37684900  1
  B  B2  1  0.74724200  0.13574600  0.78720400  1
  B  B3  1  0.75275800  0.13574600  0.28720400  1
  B  B4  1  0.53857700  0.17546700  0.81624000  1
  B  B5  1  0.96142300  0.17546700  0.31624000  1
  B  B6  1  0.94085200  0.19462400  0.85694200  1
  B  B7  1  0.36808600  0.22046100  0.69841300  1
  B  B8  1  0.55914800  0.19462400  0.35694200  1
  B  B9  1  0.13191400  0.22046100  0.19841300  1
  B  B10  1  0.88508700  0.27779100  0.67061900  1
  B  B11  1  0.61491300  0.27779100  0.17061900  1
  B  B12  1  0.59943000  0.34659200  0.97148500  1
  B  B13  1  0.90057000  0.34659200  0.47148500  1
  B  B14  1  0.29083100  0.50298900  0.90171600  1
  B  B15  1  0.20916900  0.50298900  0.40171600  1
  B  B16  1  0.79083100  0.49701100  0.59828400  1
  B  B17  1  0.70916900  0.49701100  0.09828400  1
  B  B18  1  0.09943000  0.65340800  0.52851500  1
  B  B19  1  0.40057000  0.65340800  0.02851500  1
  B  B20  1  0.38508700  0.72220900  0.82938100  1
  B  B21  1  0.11491300  0.72220900  0.32938100  1
  B  B22  1  0.86808600  0.77953900  0.80158700  1
  B  B23  1  0.44085200  0.80537600  0.64305800  1
  B  B24  1  0.63191400  0.77953900  0.30158700  1
  B  B25  1  0.05914800  0.80537600  0.14305800  1
  B  B26  1  0.03857700  0.82453300  0.68376000  1
  B  B27  1  0.46142300  0.82453300  0.18376000  1
  B  B28  1  0.24724200  0.86425400  0.71279600  1
  B  B29  1  0.25275800  0.86425400  0.21279600  1
  B  B30  1  0.83940900  0.89891900  0.62315100  1
  B  B31  1  0.66059100  0.89891900  0.12315100  1
  O  O0  1  0.45778400  0.09496500  0.89443000  1
  O  O1  1  0.26448400  0.07635000  0.96451400  1
  O  O2  1  0.63952000  0.07857700  0.80918300  1
  O  O3  1  0.04221600  0.09496500  0.39443000  1
  O  O4  1  0.23551600  0.07635000  0.46451400  1
  O  O5  1  0.86048000  0.07857700  0.30918300  1
  O  O6  1  0.82337800  0.15533400  0.87678100  1
  O  O7  1  0.29441300  0.15240000  0.77672200  1
  O  O8  1  0.67662200  0.15533400  0.37678100  1
  O  O9  1  0.20558700  0.15240000  0.27672200  1
  O  O10  1  0.00979000  0.17554300  0.94795100  1
  O  O11  1  0.49021000  0.17554300  0.44795100  1
  O  O12  1  0.78114800  0.17543900  0.68105500  1
  O  O13  1  0.48639900  0.20553400  0.70757300  1
  O  O14  1  0.71885200  0.17543900  0.18105500  1
  O  O15  1  0.01360100  0.20553400  0.20757300  1
  O  O16  1  0.31420500  0.29832800  0.61611500  1
  O  O17  1  0.93655700  0.26071700  0.55940700  1
  O  O18  1  0.18579500  0.29832800  0.11611500  1
  O  O19  1  0.97496000  0.24426300  0.75415200  1
  O  O20  1  0.56344300  0.26071700  0.05940700  1
  O  O21  1  0.52504000  0.24426300  0.25415200  1
  O  O22  1  0.57560300  0.32005900  0.86199200  1
  O  O23  1  0.92439700  0.32005900  0.36199200  1
  O  O24  1  0.20243600  0.40839500  0.88015600  1
  O  O25  1  0.29756400  0.40839500  0.38015600  1
  O  O26  1  0.83596500  0.42291700  0.68816000  1
  O  O27  1  0.66798000  0.47053100  0.98997300  1
  O  O28  1  0.66403500  0.42291700  0.18816000  1
  O  O29  1  0.83202000  0.47053100  0.48997300  1
  O  O30  1  0.16798000  0.52946900  0.51002700  1
  O  O31  1  0.33596500  0.57708300  0.81184000  1
  O  O32  1  0.33202000  0.52946900  0.01002700  1
  O  O33  1  0.16403500  0.57708300  0.31184000  1
  O  O34  1  0.70243600  0.59160500  0.61984400  1
  O  O35  1  0.79756400  0.59160500  0.11984400  1
  O  O36  1  0.07560300  0.67994100  0.63800800  1
  O  O37  1  0.42439700  0.67994100  0.13800800  1
  O  O38  1  0.47496000  0.75573700  0.74584800  1
  O  O39  1  0.43655700  0.73928300  0.94059300  1
  O  O40  1  0.02504000  0.75573700  0.24584800  1
  O  O41  1  0.81420500  0.70167200  0.88388500  1
  O  O42  1  0.06344300  0.73928300  0.44059300  1
  O  O43  1  0.68579500  0.70167200  0.38388500  1
  O  O44  1  0.98639900  0.79446600  0.79242700  1
  O  O45  1  0.28114800  0.82456100  0.81894500  1
  O  O46  1  0.51360100  0.79446600  0.29242700  1
  O  O47  1  0.21885200  0.82456100  0.31894500  1
  O  O48  1  0.50979000  0.82445700  0.55204900  1
  O  O49  1  0.99021000  0.82445700  0.05204900  1
  O  O50  1  0.79441300  0.84760000  0.72327800  1
  O  O51  1  0.32337800  0.84466600  0.62321900  1
  O  O52  1  0.70558700  0.84760000  0.22327800  1
  O  O53  1  0.17662200  0.84466600  0.12321900  1
  O  O54  1  0.13952000  0.92142300  0.69081700  1
  O  O55  1  0.76448400  0.92365000  0.53548600  1
  O  O56  1  0.95778400  0.90503500  0.60557000  1
  O  O57  1  0.36048000  0.92142300  0.19081700  1
  O  O58  1  0.73551600  0.92365000  0.03548600  1
  O  O59  1  0.54221600  0.90503500  0.10557000  1
loop_
_geom_bond_atom_site_label_1
_geom_bond_atom_site_label_2
_geom_bond_distance
_geom_bond_site_symmetry_2
Li0 O54 2.055796 1_545
Li0 O56 2.112482 1_445
Li0 O4 2.242064 1_555
Li0 O3 2.242482 1_555
Li0 O17 2.394568 1_455
Li1 O55 2.118635 1_545
Li1 O8 2.147045 1_555
Li1 O12 2.169542 1_555
Li1 O11 2.382951 1_555
Li1 O13 2.869966 1_555
Li2 O57 2.055796 1_545
Li2 O59 2.112482 1_545
Li2 O1 2.242064 1_554
Li2 O0 2.242482 1_554
Li2 O20 2.394568 1_555
Li3 O58 2.118635 1_545
Li3 O6 2.147045 1_554
Li3 O14 2.169542 1_555
Li3 O10 2.382951 1_654
Li3 O15 2.869966 1_655
Li4 O24 2.097150 1_555
Li4 O36 2.299367 1_555
Li4 O31 2.412478 1_555
Li4 O30 2.519035 1_555
Li4 O16 2.698363 1_555
Li5 O25 2.097150 1_555
Li5 O37 2.299367 1_555
Li5 O33 2.412478 1_555
Li5 O32 2.519035 1_555
Li5 O18 2.698363 1_555
Li6 O34 2.097150 1_555
Li6 O22 2.299367 1_555
Li6 O26 2.412478 1_555
Li6 O27 2.519035 1_555
Li6 O41 2.698363 1_555
Li7 O35 2.097150 1_555
Li7 O23 2.299367 1_555
Li7 O28 2.412478 1_555
Li7 O29 2.519035 1_555
Li7 O43 2.698363 1_555
Li8 O1 2.118635 1_565
Li8 O53 2.147045 1_556
Li8 O45 2.169542 1_555
Li8 O49 2.382951 1_456
Li8 O44 2.869966 1_455
Li9 O2 2.055796 1_565
Li9 O0 2.112482 1_565
Li9 O58 2.242064 1_556
Li9 O59 2.242482 1_556
Li9 O39 2.394568 1_555
Li10 O4 2.118635 1_565
Li10 O51 2.147045 1_555
Li10 O47 2.169542 1_555
Li10 O48 2.382951 1_555
Li10 O46 2.869966 1_555
Li11 O5 2.055796 1_565
Li11 O3 2.112482 1_665
Li11 O55 2.242064 1_555
Li11 O56 2.242482 1_555
Li11 O42 2.394568 1_655
Fe0 O18 1.855949 1_556
Fe0 O10 1.875174 1_555
Fe0 O24 1.889417 1_555
Fe0 O1 1.963157 1_555
Fe1 O16 1.855949 1_555
Fe1 O11 1.875174 1_555
Fe1 O25 1.889417 1_555
Fe1 O4 1.963157 1_555
Fe2 O43 1.855949 1_555
Fe2 O48 1.875174 1_555
Fe2 O34 1.889417 1_555
Fe2 O55 1.963157 1_555
Fe3 O41 1.855949 1_554
Fe3 O49 1.875174 1_555
Fe3 O35 1.889417 1_555
Fe3 O58 1.963157 1_555
B0 O1 1.374128 1_555
B0 O0 1.374460 1_555
B0 O7 1.384033 1_555
B1 O4 1.374128 1_555
B1 O3 1.374460 1_555
B1 O9 1.384033 1_555
B2 O2 1.367333 1_555
B2 O12 1.375526 1_555
B2 O6 1.398297 1_555
B3 O5 1.367333 1_555
B3 O14 1.375526 1_555
B3 O8 1.398297 1_555
B4 O13 1.456904 1_555
B4 O2 1.466597 1_555
B4 O0 1.506408 1_555
B4 O22 1.513465 1_555
B5 O15 1.456904 1_655
B5 O5 1.466597 1_555
B5 O3 1.506408 1_655
B5 O23 1.513465 1_555
B6 O10 1.356956 1_655
B6 O19 1.365912 1_555
B6 O6 1.414112 1_555
B7 O16 1.360763 1_555
B7 O13 1.367682 1_555
B7 O7 1.404580 1_555
B8 O11 1.356956 1_555
B8 O21 1.365912 1_555
B8 O8 1.414112 1_555
B9 O18 1.360763 1_555
B9 O15 1.367682 1_555
B9 O9 1.404580 1_555
B10 O19 1.466912 1_555
B10 O17 1.469394 1_555
B10 O26 1.472985 1_555
B10 O12 1.525437 1_555
B11 O21 1.466912 1_555
B11 O20 1.469394 1_555
B11 O28 1.472985 1_555
B11 O14 1.525437 1_555
B12 O22 1.367369 1_555
B12 O20 1.373344 1_556
B12 O27 1.409670 1_555
B13 O23 1.367369 1_555
B13 O17 1.373344 1_555
B13 O29 1.409670 1_555
B14 O24 1.365833 1_555
B14 O31 1.369557 1_555
B14 O32 1.407360 1_556
B15 O25 1.365833 1_555
B15 O33 1.369557 1_555
B15 O30 1.407360 1_555
B16 O34 1.365833 1_555
B16 O26 1.369557 1_555
B16 O29 1.407360 1_555
B17 O35 1.365833 1_555
B17 O28 1.369557 1_555
B17 O27 1.407360 1_554
B18 O36 1.367369 1_555
B18 O42 1.373344 1_555
B18 O30 1.409670 1_555
B19 O37 1.367369 1_555
B19 O39 1.373344 1_554
B19 O32 1.409670 1_555
B20 O38 1.466912 1_555
B20 O39 1.469394 1_555
B20 O31 1.472985 1_555
B20 O45 1.525437 1_555
B21 O40 1.466912 1_555
B21 O42 1.469394 1_555
B21 O33 1.472985 1_555
B21 O47 1.525437 1_555
B22 O41 1.360763 1_555
B22 O44 1.367682 1_555
B22 O50 1.404580 1_555
B23 O48 1.356956 1_555
B23 O38 1.365912 1_555
B23 O51 1.414112 1_555
B24 O43 1.360763 1_555
B24 O46 1.367682 1_555
B24 O52 1.404580 1_555
B25 O49 1.356956 1_455
B25 O40 1.365912 1_555
B25 O53 1.414112 1_555
B26 O44 1.456904 1_455
B26 O54 1.466597 1_555
B26 O56 1.506408 1_455
B26 O36 1.513465 1_555
B27 O46 1.456904 1_555
B27 O57 1.466597 1_555
B27 O59 1.506408 1_555
B27 O37 1.513465 1_555
B28 O54 1.367333 1_555
B28 O45 1.375526 1_555
B28 O51 1.398297 1_555
B29 O57 1.367333 1_555
B29 O47 1.375526 1_555
B29 O53 1.398297 1_555
B30 O55 1.374128 1_555
B30 O56 1.374460 1_555
B30 O50 1.384033 1_555
B31 O58 1.374128 1_555
B31 O59 1.374460 1_555
B31 O52 1.384033 1_555
