# generated using pymatgen
data_Li2MnCo3O8
_symmetry_space_group_name_H-M   'P 1'
_cell_length_a   5.67135022
_cell_length_b   5.67974793
_cell_length_c   9.16251515
_cell_angle_alpha   89.72459695
_cell_angle_beta   90.13789806
_cell_angle_gamma   120.04898200
_symmetry_Int_Tables_number   1
_chemical_formula_structural   Li2MnCo3O8
_chemical_formula_sum   'Li4 Mn2 Co6 O16'
_cell_volume   255.47080731
_cell_formula_units_Z   2
loop_
 _symmetry_equiv_pos_site_id
 _symmetry_equiv_pos_as_xyz
  1  'x, y, z'
loop_
 _atom_site_type_symbol
 _atom_site_label
 _atom_site_symmetry_multiplicity
 _atom_site_fract_x
 _atom_site_fract_y
 _atom_site_fract_z
 _atom_site_occupancy
  Li  Li0  1  0.33461700  0.66838600  0.89631400  1
  Li  Li1  1  0.99807100  0.00039600  0.99834200  1
  Li  Li2  1  0.00192900  0.00232600  0.49834200  1
  Li  Li3  1  0.66538300  0.33376800  0.39631400  1
  Mn  Mn0  1  0.33224500  0.66137100  0.48496900  1
  Mn  Mn1  1  0.66775500  0.32912600  0.98496900  1
  Co  Co0  1  0.16888400  0.83091600  0.21065900  1
  Co  Co1  1  0.16909300  0.34057000  0.21358000  1
  Co  Co2  1  0.65915400  0.83065100  0.21366400  1
  Co  Co3  1  0.34084600  0.17149600  0.71366400  1
  Co  Co4  1  0.83111600  0.66203100  0.71065900  1
  Co  Co5  1  0.83090700  0.17147700  0.71358000  1
  O  O0  1  0.16046200  0.83139700  0.60385300  1
  O  O1  1  0.03973900  0.52264400  0.33738600  1
  O  O2  1  0.33239800  0.66725100  0.10791100  1
  O  O3  1  0.00026600  0.99905000  0.30814900  1
  O  O4  1  0.99973400  0.99878400  0.80814900  1
  O  O5  1  0.16501400  0.33041900  0.59927300  1
  O  O6  1  0.47673500  0.95961700  0.33778800  1
  O  O7  1  0.48036900  0.51972500  0.33894900  1
  O  O8  1  0.32887100  0.16071800  0.10308200  1
  O  O9  1  0.67112900  0.83184700  0.60308200  1
  O  O10  1  0.52326500  0.48288200  0.83778800  1
  O  O11  1  0.51963100  0.03935500  0.83894900  1
  O  O12  1  0.66760200  0.33485200  0.60791100  1
  O  O13  1  0.83953800  0.67093500  0.10385300  1
  O  O14  1  0.96026100  0.48290500  0.83738600  1
  O  O15  1  0.83498600  0.16540400  0.09927300  1
loop_
_geom_bond_atom_site_label_1
_geom_bond_atom_site_label_2
_geom_bond_distance
_geom_bond_site_symmetry_2
Li0 O11 1.895953 1_565
Li0 O14 1.915439 1_455
Li0 O10 1.918187 1_555
Li0 O2 1.938791 1_556
Li1 O4 1.742787 1_545
Li1 O15 1.862686 1_556
Li1 O13 1.883197 1_546
Li1 O8 1.886455 1_656
Li2 O3 1.742787 1_545
Li2 O5 1.862686 1_555
Li2 O0 1.883202 1_545
Li2 O9 1.886455 1_445
Li3 O7 1.895962 1_555
Li3 O1 1.915439 1_655
Li3 O6 1.918183 1_545
Li3 O12 1.938791 1_555
Mn0 O5 1.931366 1_555
Mn0 O7 1.958457 1_555
Mn0 O1 1.972748 1_555
Mn0 O9 1.984667 1_555
Mn0 O6 1.988159 1_555
Mn0 O0 2.006414 1_555
Mn1 O15 1.931370 1_556
Mn1 O11 1.958461 1_555
Mn1 O14 1.972748 1_555
Mn1 O8 1.984667 1_556
Mn1 O10 1.988158 1_555
Mn1 O13 2.006415 1_556
Co0 O2 1.867164 1_555
Co0 O3 1.884469 1_555
Co0 O13 1.890018 1_455
Co0 O8 1.894225 1_565
Co0 O1 1.910656 1_555
Co0 O6 1.913029 1_555
Co1 O2 1.871889 1_555
Co1 O3 1.886269 1_545
Co1 O1 1.915590 1_555
Co1 O7 1.916734 1_555
Co1 O15 1.946704 1_455
Co1 O8 1.957301 1_555
Co2 O2 1.874024 1_555
Co2 O3 1.885114 1_655
Co2 O7 1.912424 1_555
Co2 O6 1.916480 1_555
Co2 O15 1.948078 1_565
Co2 O13 1.955747 1_555
Co3 O12 1.874024 1_555
Co3 O4 1.885114 1_445
Co3 O11 1.912424 1_555
Co3 O10 1.916484 1_555
Co3 O5 1.948086 1_555
Co3 O0 1.955743 1_545
Co4 O12 1.867164 1_555
Co4 O4 1.884474 1_555
Co4 O0 1.890017 1_655
Co4 O9 1.894229 1_555
Co4 O14 1.910652 1_555
Co4 O10 1.913028 1_555
Co5 O12 1.871885 1_555
Co5 O4 1.886269 1_545
Co5 O14 1.915590 1_555
Co5 O11 1.916733 1_555
Co5 O5 1.946703 1_655
Co5 O9 1.957301 1_545
