# generated using pymatgen
data_V16(CuO8)5
_symmetry_space_group_name_H-M   'P 1'
_cell_length_a   11.46838200
_cell_length_b   9.43348906
_cell_length_c   7.10693684
_cell_angle_alpha   89.94497274
_cell_angle_beta   90.00001307
_cell_angle_gamma   90.00003321
_symmetry_Int_Tables_number   1
_chemical_formula_structural   V16(CuO8)5
_chemical_formula_sum   'V16 Cu5 O40'
_cell_volume   768.87679892
_cell_formula_units_Z   1
loop_
 _symmetry_equiv_pos_site_id
 _symmetry_equiv_pos_as_xyz
  1  'x, y, z'
loop_
 _atom_site_type_symbol
 _atom_site_label
 _atom_site_symmetry_multiplicity
 _atom_site_fract_x
 _atom_site_fract_y
 _atom_site_fract_z
 _atom_site_occupancy
  V  V0  1  0.14780300  0.55336600  0.50306700  1
  V  V1  1  0.14869300  0.05109700  0.99700700  1
  V  V2  1  0.14759000  0.05223500  0.50500000  1
  V  V3  1  0.14845900  0.54963900  0.99498900  1
  V  V4  1  0.35354000  0.94742800  0.75056100  1
  V  V5  1  0.35155400  0.95080000  0.24966900  1
  V  V6  1  0.34940400  0.44878900  0.25446700  1
  V  V7  1  0.35167200  0.44535500  0.74575200  1
  V  V8  1  0.64832800  0.44535500  0.74575200  1
  V  V9  1  0.65059600  0.44878900  0.25446700  1
  V  V10  1  0.64844600  0.95080000  0.24966900  1
  V  V11  1  0.64646000  0.94742800  0.75056100  1
  V  V12  1  0.85130700  0.05109800  0.99700700  1
  V  V13  1  0.85241000  0.05223500  0.50500000  1
  V  V14  1  0.85154100  0.54963900  0.99498900  1
  V  V15  1  0.85219700  0.55336600  0.50306700  1
  Cu  Cu0  1  0.00000000  0.31085000  0.74334700  1
  Cu  Cu1  1  0.00000000  0.81797600  0.75076100  1
  Cu  Cu2  1  0.50000000  0.68387400  0.00150500  1
  Cu  Cu3  1  0.50000000  0.68445600  0.49892900  1
  Cu  Cu4  1  0.50000000  0.18112800  0.49881700  1
  O  O0  1  0.00000000  0.48340400  0.98252300  1
  O  O1  1  0.00000000  0.48462600  0.51745300  1
  O  O2  1  0.00000000  0.98356000  0.97964500  1
  O  O3  1  0.00000000  0.98307700  0.51984500  1
  O  O4  1  0.12926200  0.22200700  0.97101200  1
  O  O5  1  0.12613600  0.22267100  0.53533900  1
  O  O6  1  0.12929700  0.72059400  0.96734800  1
  O  O7  1  0.12737100  0.72386200  0.52914700  1
  O  O8  1  0.17745600  0.50323800  0.25122100  1
  O  O9  1  0.17662800  0.00465600  0.24957600  1
  O  O10  1  0.18210800  0.48521000  0.74724700  1
  O  O11  1  0.18298100  0.98605100  0.75151300  1
  O  O12  1  0.32402000  0.00444700  0.99980900  1
  O  O13  1  0.31715300  0.00065000  0.50024700  1
  O  O14  1  0.32071700  0.49591000  0.99960600  1
  O  O15  1  0.32419200  0.51903600  0.50074100  1
  O  O16  1  0.37376900  0.27622500  0.71540600  1
  O  O17  1  0.38073300  0.77438900  0.75584300  1
  O  O18  1  0.37023000  0.27898900  0.28561300  1
  O  O19  1  0.37767700  0.77736300  0.24447600  1
  O  O20  1  0.50000000  0.02001000  0.72641100  1
  O  O21  1  0.50000000  0.52089600  0.75622000  1
  O  O22  1  0.50000000  0.01882300  0.27174800  1
  O  O23  1  0.50000000  0.52005400  0.24348900  1
  O  O24  1  0.62976900  0.27898900  0.28561300  1
  O  O25  1  0.62623100  0.27622500  0.71540600  1
  O  O26  1  0.62232300  0.77736300  0.24447600  1
  O  O27  1  0.61926700  0.77438900  0.75584300  1
  O  O28  1  0.67598100  0.00444700  0.99980900  1
  O  O29  1  0.68284700  0.00065000  0.50024700  1
  O  O30  1  0.67928300  0.49591000  0.99960600  1
  O  O31  1  0.67580800  0.51903600  0.50074100  1
  O  O32  1  0.81789200  0.48521000  0.74724700  1
  O  O33  1  0.82254400  0.50323700  0.25122100  1
  O  O34  1  0.82337200  0.00465600  0.24957600  1
  O  O35  1  0.81701900  0.98605000  0.75151300  1
  O  O36  1  0.87386400  0.22267100  0.53533900  1
  O  O37  1  0.87073800  0.22200700  0.97101100  1
  O  O38  1  0.87070300  0.72059400  0.96734800  1
  O  O39  1  0.87262900  0.72386200  0.52914700  1
loop_
_geom_bond_atom_site_label_1
_geom_bond_atom_site_label_2
_geom_bond_distance
_geom_bond_site_symmetry_2
Cu0 O36 2.229857 1_455
Cu0 O5 2.229858 1_555
Cu0 O1 2.293393 1_555
Cu0 O37 2.348467 1_455
Cu0 O4 2.348472 1_555
Cu0 O0 2.354645 1_555
Cu0 O10 2.658582 1_555
Cu0 O32 2.658584 1_455
Cu1 O2 2.256296 1_555
Cu1 O3 2.261428 1_555
Cu1 O39 2.324927 1_455
Cu1 O7 2.324929 1_555
Cu1 O38 2.325798 1_455
Cu1 O6 2.325798 1_555
Cu1 O35 2.630137 1_455
Cu1 O11 2.630141 1_555
Cu2 O23 2.311002 1_555
Cu2 O21 2.325454 1_554
Cu2 O27 2.375982 1_554
Cu2 O17 2.375982 1_554
Cu2 O26 2.393839 1_555
Cu2 O19 2.393840 1_555
Cu2 O14 2.715105 1_554
Cu2 O30 2.715107 1_554
Cu3 O23 2.388789 1_555
Cu3 O21 2.391411 1_555
Cu3 O27 2.434627 1_555
Cu3 O17 2.434628 1_555
Cu3 O26 2.450167 1_555
Cu3 O19 2.450167 1_555
Cu3 O15 2.549597 1_555
Cu3 O31 2.549598 1_555
Cu4 O20 2.218487 1_555
Cu4 O22 2.225592 1_555
Cu4 O25 2.296206 1_555
Cu4 O16 2.296207 1_555
Cu4 O24 2.315239 1_555
Cu4 O18 2.315246 1_555
Cu4 O13 2.701099 1_555
Cu4 O29 2.701101 1_555
O0 V3 1.815808 1_555
O0 V14 1.815808 1_455
O1 V0 1.817706 1_555
O1 V15 1.817707 1_455
O2 V1 1.824616 1_565
O2 V12 1.824620 1_465
O3 V2 1.817026 1_565
O3 V13 1.817026 1_465
O4 V1 1.637882 1_555
O5 V2 1.640955 1_555
O6 V3 1.639232 1_555
O7 V0 1.636061 1_555
O8 V0 1.882676 1_555
O8 V3 1.901786 1_554
O8 V6 2.037888 1_555
O9 V1 1.874848 1_554
O9 V2 1.899782 1_555
O9 V5 2.069451 1_545
O10 V0 1.891438 1_555
O10 V3 1.902735 1_555
O10 V7 1.980667 1_555
O10 O14 2.398764 1_555
O10 O15 2.413524 1_555
O11 V1 1.891353 1_565
O11 V2 1.903098 1_565
O11 V4 1.989693 1_555
O11 O13 2.361152 1_565
O11 O12 2.400181 1_565
O12 V5 1.872792 1_546
O12 V4 1.882443 1_545
O12 V1 2.058404 1_555
O12 O9 2.451161 1_556
O13 V5 1.884091 1_545
O13 V4 1.894523 1_545
O13 V2 2.004869 1_555
O13 O9 2.402558 1_555
O14 V6 1.893416 1_556
O14 V7 1.899997 1_555
O14 V3 2.039761 1_555
O14 O8 2.429419 1_556
O15 V6 1.894296 1_555
O15 V7 1.900569 1_555
O15 V0 2.048725 1_555
O15 O8 2.449344 1_555
O16 V7 1.630021 1_555
O17 V4 1.662273 1_555
O18 V6 1.634364 1_555
O19 V5 1.663763 1_555
O20 V4 1.821895 1_545
O20 V11 1.821896 1_545
O21 V7 1.845843 1_555
O21 V8 1.845844 1_555
O22 V5 1.826163 1_545
O22 V10 1.826164 1_545
O23 V6 1.854937 1_555
O23 V9 1.854938 1_555
O24 V9 1.634365 1_555
O25 V8 1.630021 1_555
O26 V10 1.663763 1_555
O27 V11 1.662273 1_555
O28 V10 1.872794 1_546
O28 V11 1.882444 1_545
O28 V12 2.058394 1_555
O28 O35 2.400175 1_545
O28 O34 2.451153 1_556
O29 V10 1.884091 1_545
O29 V11 1.894523 1_545
O29 V13 2.004868 1_555
O29 O35 2.361152 1_545
O29 O34 2.402559 1_555
O30 V9 1.893416 1_556
O30 V8 1.899997 1_555
O30 V14 2.039761 1_555
O30 O32 2.398765 1_555
O30 O33 2.429418 1_556
O31 V9 1.894295 1_555
O31 V8 1.900569 1_555
O31 V15 2.048725 1_555
O31 O32 2.413523 1_555
O31 O33 2.449346 1_555
O32 V15 1.891438 1_555
O32 V14 1.902735 1_555
O32 V8 1.980666 1_555
O33 V15 1.882678 1_555
O33 V14 1.901788 1_554
O33 V9 2.037885 1_555
O34 V12 1.874850 1_554
O34 V13 1.899781 1_555
O34 V10 2.069450 1_545
O35 V12 1.891359 1_565
O35 V13 1.903101 1_565
O35 V11 1.989691 1_555
O36 V13 1.640955 1_555
O37 V12 1.637873 1_555
O38 V14 1.639232 1_555
O39 V15 1.636061 1_555
