# generated using pymatgen
data_Ba10Cu5O17
_symmetry_space_group_name_H-M   'P 1'
_cell_length_a   5.74265755
_cell_length_b   9.03112443
_cell_length_c   10.73917485
_cell_angle_alpha   93.81564299
_cell_angle_beta   91.72720255
_cell_angle_gamma   107.14163626
_symmetry_Int_Tables_number   1
_chemical_formula_structural   Ba10Cu5O17
_chemical_formula_sum   'Ba10 Cu5 O17'
_cell_volume   530.31807788
_cell_formula_units_Z   1
loop_
 _symmetry_equiv_pos_site_id
 _symmetry_equiv_pos_as_xyz
  1  'x, y, z'
loop_
 _atom_site_type_symbol
 _atom_site_label
 _atom_site_symmetry_multiplicity
 _atom_site_fract_x
 _atom_site_fract_y
 _atom_site_fract_z
 _atom_site_occupancy
  Ba  Ba0  1  0.41106411  0.32546269  0.88198181  1
  Ba  Ba1  1  0.03359771  0.53025585  0.68412367  1
  Ba  Ba2  1  0.78130655  0.07102624  0.71675945  1
  Ba  Ba3  1  0.39509096  0.27304858  0.51255307  1
  Ba  Ba4  1  0.96640229  0.46974415  0.31587633  1
  Ba  Ba5  1  0.21869345  0.92897376  0.28324055  1
  Ba  Ba6  1  0.60490904  0.72695142  0.48744693  1
  Ba  Ba7  1  0.80106777  0.12678853  0.08884774  1
  Ba  Ba8  1  0.58893589  0.67453731  0.11801819  1
  Ba  Ba9  1  0.19893223  0.87321147  0.91115226  1
  Cu  Cu0  1  0.61533462  0.70737999  0.79416339  1
  Cu  Cu1  1  0.79230848  0.10167661  0.39880107  1
  Cu  Cu2  1  0.20769152  0.89832339  0.60119893  1
  Cu  Cu3  1  0.38466538  0.29262001  0.20583661  1
  Cu  Cu4  1  -0.00000000  0.50000000  -0.00000000  1
  O  O0  1  0.91151666  0.32439865  0.88399598  1
  O  O1  1  0.54421947  0.52109709  0.69084648  1
  O  O2  1  0.27948485  0.08359254  0.71102539  1
  O  O3  1  0.90069558  0.27091423  0.52487108  1
  O  O4  1  0.45578053  0.47890291  0.30915352  1
  O  O5  1  0.40861175  0.79649285  0.70385322  1
  O  O6  1  0.92297971  0.80751832  0.69317613  1
  O  O7  1  0.50000000  -0.00000000  0.50000000  1
  O  O8  1  0.59138825  0.20350715  0.29614678  1
  O  O9  1  0.07702029  0.19248168  0.30682387  1
  O  O10  1  0.72230210  0.41469538  0.08561213  1
  O  O11  1  0.09930442  0.72908577  0.47512892  1
  O  O12  1  0.28855848  0.13200032  0.07646631  1
  O  O13  1  0.72051515  0.91640746  0.28897461  1
  O  O14  1  0.08848334  0.67560135  0.11600402  1
  O  O15  1  0.71144152  0.86799968  0.92353369  1
  O  O16  1  0.27769790  0.58530462  0.91438787  1
loop_
_geom_bond_atom_site_label_1
_geom_bond_atom_site_label_2
_geom_bond_distance
_geom_bond_site_symmetry_2
Ba0 O2 2.668841 1_555
Ba0 O16 2.679798 1_555
Ba0 O10 2.703140 1_556
Ba0 O1 2.774980 1_555
Ba0 O12 2.785594 1_556
Ba0 O0 2.866651 1_455
Ba0 O0 2.876209 1_555
Ba1 O5 2.704880 1_555
Ba1 O3 2.706946 1_455
Ba1 O16 2.746589 1_555
Ba1 O6 2.755343 1_455
Ba1 O1 2.790344 1_455
Ba1 O0 2.899770 1_455
Ba1 O11 2.931260 1_555
Ba1 O1 2.956619 1_555
Ba2 O0 2.717388 1_555
Ba2 O7 2.720959 1_555
Ba2 O6 2.731826 1_545
Ba2 O5 2.748721 1_545
Ba2 O3 2.797525 1_555
Ba2 O2 2.832207 1_655
Ba2 O2 2.916231 1_555
Ba2 O15 2.935279 1_545
Ba3 O7 2.701545 1_555
Ba3 O8 2.728965 1_555
Ba3 O9 2.739783 1_555
Ba3 O1 2.759944 1_555
Ba3 O2 2.795058 1_555
Ba3 O3 2.840656 1_455
Ba3 O3 2.908340 1_555
Ba3 O4 2.924635 1_555
Ba4 O8 2.704880 1_555
Ba4 O11 2.706946 1_655
Ba4 O10 2.746589 1_555
Ba4 O9 2.755343 1_655
Ba4 O4 2.790344 1_655
Ba4 O14 2.899770 1_655
Ba4 O3 2.931260 1_555
Ba4 O4 2.956619 1_555
Ba5 O14 2.717388 1_555
Ba5 O7 2.720959 1_565
Ba5 O9 2.731826 1_565
Ba5 O8 2.748721 1_565
Ba5 O11 2.797525 1_555
Ba5 O13 2.832207 1_455
Ba5 O13 2.916231 1_555
Ba5 O12 2.935279 1_565
Ba6 O7 2.701545 1_565
Ba6 O5 2.728965 1_555
Ba6 O6 2.739783 1_555
Ba6 O4 2.759944 1_555
Ba6 O13 2.795058 1_555
Ba6 O11 2.840656 1_655
Ba6 O11 2.908340 1_555
Ba6 O1 2.924635 1_555
Ba7 O8 2.708153 1_555
Ba7 O9 2.716677 1_655
Ba7 O15 2.750022 1_544
Ba7 O10 2.769620 1_555
Ba7 O12 2.793323 1_655
Ba7 O0 2.892469 1_554
Ba7 O13 2.920320 1_545
Ba7 O12 2.956521 1_555
Ba8 O13 2.668841 1_555
Ba8 O10 2.679798 1_555
Ba8 O16 2.703140 1_554
Ba8 O4 2.774980 1_555
Ba8 O15 2.785594 1_554
Ba8 O14 2.866651 1_655
Ba8 O14 2.876209 1_555
Ba9 O5 2.708153 1_555
Ba9 O6 2.716677 1_455
Ba9 O12 2.750022 1_566
Ba9 O16 2.769620 1_555
Ba9 O15 2.793323 1_455
Ba9 O14 2.892469 1_556
Ba9 O2 2.920320 1_565
Ba9 O15 2.956521 1_555
Cu0 O1 1.883453 1_555
Cu0 O15 1.884846 1_555
Cu0 O5 1.896117 1_555
Cu0 O6 2.102262 1_555
Cu0 O16 2.392106 1_555
Cu1 O13 1.913644 1_545
Cu1 O3 1.915587 1_555
Cu1 O9 1.932928 1_655
Cu1 O8 2.018939 1_555
Cu1 O7 2.043595 1_555
Cu2 O2 1.913644 1_565
Cu2 O11 1.915587 1_555
Cu2 O6 1.932928 1_455
Cu2 O5 2.018939 1_555
Cu2 O7 2.043595 1_565
Cu3 O4 1.883453 1_555
Cu3 O12 1.884846 1_555
Cu3 O8 1.896117 1_555
Cu3 O9 2.102262 1_555
Cu3 O10 2.392106 1_555
Cu4 O16 1.854834 1_554
Cu4 O10 1.854834 1_455
Cu4 O0 1.883898 1_454
Cu4 O14 1.883898 1_555
