# generated using pymatgen
data_Li4Fe2Co3Sb3O16
_symmetry_space_group_name_H-M   'P 1'
_cell_length_a   6.04325200
_cell_length_b   6.06801460
_cell_length_c   9.67403595
_cell_angle_alpha   90.49286219
_cell_angle_beta   90.58240045
_cell_angle_gamma   119.39507807
_symmetry_Int_Tables_number   1
_chemical_formula_structural   Li4Fe2Co3Sb3O16
_chemical_formula_sum   'Li4 Fe2 Co3 Sb3 O16'
_cell_volume   309.02634147
_cell_formula_units_Z   1
loop_
 _symmetry_equiv_pos_site_id
 _symmetry_equiv_pos_as_xyz
  1  'x, y, z'
loop_
 _atom_site_type_symbol
 _atom_site_label
 _atom_site_symmetry_multiplicity
 _atom_site_fract_x
 _atom_site_fract_y
 _atom_site_fract_z
 _atom_site_occupancy
  Li  Li0  1  0.33716100  0.66155500  0.88296700  1
  Li  Li1  1  0.95910500  0.98219200  0.98673500  1
  Li  Li2  1  0.98037600  0.99360100  0.50612500  1
  Li  Li3  1  0.65320900  0.32413300  0.40090700  1
  Fe  Fe0  1  0.35520300  0.68540800  0.50732500  1
  Fe  Fe1  1  0.70839600  0.35149700  0.97368600  1
  Co  Co0  1  0.65747500  0.82817600  0.21582400  1
  Co  Co1  1  0.83945500  0.66352800  0.71246600  1
  Co  Co2  1  0.83567800  0.17357600  0.71360900  1
  Sb  Sb0  1  0.16505700  0.82966300  0.21477700  1
  Sb  Sb1  1  0.16552800  0.33556000  0.21553200  1
  Sb  Sb2  1  0.34546500  0.17578800  0.71487200  1
  O  O0  1  0.17957000  0.85434200  0.59560000  1
  O  O1  1  0.02145400  0.51423700  0.33550100  1
  O  O2  1  0.31331900  0.65365200  0.09914100  1
  O  O3  1  0.00810400  0.00637600  0.31932900  1
  O  O4  1  0.00916300  0.01818900  0.80610700  1
  O  O5  1  0.16444400  0.32986000  0.60126700  1
  O  O6  1  0.46651900  0.96085400  0.33794200  1
  O  O7  1  0.46637900  0.50661700  0.34015000  1
  O  O8  1  0.30878500  0.15123400  0.09979700  1
  O  O9  1  0.67500800  0.85326600  0.60091400  1
  O  O10  1  0.51682500  0.47130200  0.84817400  1
  O  O11  1  0.53504700  0.04067800  0.83573300  1
  O  O12  1  0.66545500  0.32041100  0.60646900  1
  O  O13  1  0.84885600  0.67757500  0.09816900  1
  O  O14  1  0.97359900  0.46702600  0.83684500  1
  O  O15  1  0.84537000  0.17000300  0.10187600  1
loop_
_geom_bond_atom_site_label_1
_geom_bond_atom_site_label_2
_geom_bond_distance
_geom_bond_site_symmetry_2
Li0 O14 1.960813 1_455
Li0 O10 1.963706 1_555
Li0 O11 2.063938 1_565
Li0 O2 2.097036 1_556
Li1 O4 1.773439 1_665
Li1 O15 1.942831 1_566
Li1 O13 1.965355 1_556
Li1 O8 2.126022 1_666
Li2 O3 1.815326 1_665
Li2 O9 1.864609 1_555
Li2 O0 1.975439 1_655
Li2 O5 1.991645 1_665
Li3 O12 1.989974 1_555
Li3 O6 2.006174 1_545
Li3 O7 2.017770 1_555
Li3 O1 2.050510 1_655
Fe0 O9 1.899606 1_555
Fe0 O0 1.994515 1_555
Fe0 O5 2.103107 1_555
Fe0 O6 2.212915 1_555
Fe0 O7 2.225171 1_555
Fe0 O1 2.399061 1_555
Fe1 O14 1.941310 1_555
Fe1 O10 2.038602 1_555
Fe1 O15 2.081706 1_556
Fe1 O13 2.091716 1_556
Fe1 O11 2.103427 1_555
Fe1 O8 2.449833 1_556
Co0 O6 2.073380 1_555
Co0 O3 2.085856 1_665
Co0 O7 2.108102 1_555
Co0 O2 2.119173 1_555
Co0 O13 2.124773 1_555
Co0 O15 2.135316 1_565
Co1 O12 2.069847 1_555
Co1 O4 2.069987 1_665
Co1 O14 2.116716 1_555
Co1 O0 2.139401 1_655
Co1 O9 2.144890 1_555
Co1 O10 2.175190 1_555
Co2 O4 1.937726 1_655
Co2 O14 1.942448 1_555
Co2 O12 1.954572 1_555
Co2 O11 1.992139 1_555
Co2 O9 1.999633 1_545
Co2 O5 2.059110 1_655
O0 Sb2 2.039406 1_565
O1 Sb1 2.050886 1_555
O1 Sb0 2.051589 1_555
O2 Sb0 2.033254 1_555
O2 Sb1 2.038788 1_555
O3 Sb0 2.017862 1_545
O3 Sb1 2.022821 1_555
O4 Sb2 1.991753 1_555
O5 Sb2 2.067817 1_555
O6 Sb0 1.971869 1_555
O7 Sb1 1.979315 1_555
O8 Sb0 2.047550 1_545
O8 Sb1 2.050076 1_555
O10 Sb2 2.015207 1_555
O11 Sb2 2.064739 1_555
O12 Sb2 2.000138 1_555
O13 Sb0 1.995700 1_655
O15 Sb1 1.997821 1_655
