# generated using pymatgen
data_LiCo2OF3
_symmetry_space_group_name_H-M   'P 1'
_cell_length_a   5.19325700
_cell_length_b   5.99905200
_cell_length_c   10.29134700
_cell_angle_alpha   90.00000000
_cell_angle_beta   90.00000000
_cell_angle_gamma   90.00000000
_symmetry_Int_Tables_number   1
_chemical_formula_structural   LiCo2OF3
_chemical_formula_sum   'Li4 Co8 O4 F12'
_cell_volume   320.62299264
_cell_formula_units_Z   4
loop_
 _symmetry_equiv_pos_site_id
 _symmetry_equiv_pos_as_xyz
  1  'x, y, z'
loop_
 _atom_site_type_symbol
 _atom_site_label
 _atom_site_symmetry_multiplicity
 _atom_site_fract_x
 _atom_site_fract_y
 _atom_site_fract_z
 _atom_site_occupancy
  Li  Li0  1  0.97488000  0.75000000  0.58959600  1
  Li  Li1  1  0.52512000  0.75000000  0.08959600  1
  Li  Li2  1  0.47488000  0.25000000  0.91040400  1
  Li  Li3  1  0.02512000  0.25000000  0.41040400  1
  Co  Co0  1  0.00000000  0.00000000  0.00000000  1
  Co  Co1  1  0.00000000  0.50000000  0.00000000  1
  Co  Co2  1  0.00221900  0.25000000  0.74478800  1
  Co  Co3  1  0.49778100  0.25000000  0.24478800  1
  Co  Co4  1  0.50000000  0.50000000  0.50000000  1
  Co  Co5  1  0.50000000  0.00000000  0.50000000  1
  Co  Co6  1  0.50221900  0.75000000  0.75521200  1
  Co  Co7  1  0.99778100  0.75000000  0.25521200  1
  O  O0  1  0.83164500  0.25000000  0.91554600  1
  O  O1  1  0.66835500  0.25000000  0.41554600  1
  O  O2  1  0.33164500  0.75000000  0.58445400  1
  O  O3  1  0.16835500  0.75000000  0.08445400  1
  F  F0  1  0.79134800  0.75000000  0.42489000  1
  F  F1  1  0.77081200  0.98832900  0.66635600  1
  F  F2  1  0.77081200  0.51167100  0.66635600  1
  F  F3  1  0.72918800  0.98832900  0.16635600  1
  F  F4  1  0.72918800  0.51167100  0.16635600  1
  F  F5  1  0.70865200  0.75000000  0.92489000  1
  F  F6  1  0.29134800  0.25000000  0.07511000  1
  F  F7  1  0.27081200  0.01167100  0.83364400  1
  F  F8  1  0.27081200  0.48832900  0.83364400  1
  F  F9  1  0.22918800  0.48832900  0.33364400  1
  F  F10  1  0.22918800  0.01167100  0.33364400  1
  F  F11  1  0.20865200  0.25000000  0.57511000  1
loop_
_geom_bond_atom_site_label_1
_geom_bond_atom_site_label_2
_geom_bond_distance
_geom_bond_site_symmetry_2
Li0 O2 1.853528 1_655
Li1 O3 1.853528 1_555
Li2 O0 1.853528 1_555
Li3 O1 1.853528 1_455
Co0 O3 1.941423 1_545
Co0 O0 1.941423 1_454
Co0 F3 2.216730 1_445
Co0 F7 2.216730 1_554
Co0 F5 2.266296 1_444
Co0 F6 2.266296 1_555
Co1 O3 1.941423 1_555
Co1 O0 1.941423 1_454
Co1 F4 2.216730 1_455
Co1 F8 2.216730 1_554
Co1 F5 2.266296 1_454
Co1 F6 2.266296 1_555
Co2 O0 1.967971 1_455
Co2 F11 2.049044 1_555
Co2 F2 2.135403 1_455
Co2 F1 2.135403 1_445
Co2 F8 2.196830 1_555
Co2 F7 2.196830 1_555
Co3 O1 1.967971 1_555
Co3 F6 2.049044 1_555
Co3 F4 2.135403 1_555
Co3 F3 2.135403 1_545
Co3 F9 2.196830 1_555
Co3 F10 2.196830 1_555
Co4 O1 1.941423 1_555
Co4 O2 1.941423 1_555
Co4 F2 2.216730 1_555
Co4 F9 2.216730 1_555
Co4 F0 2.266296 1_555
Co4 F11 2.266296 1_555
Co5 O1 1.941423 1_555
Co5 O2 1.941423 1_545
Co5 F1 2.216730 1_545
Co5 F10 2.216730 1_555
Co5 F0 2.266296 1_545
Co5 F11 2.266296 1_555
Co6 O2 1.967971 1_555
Co6 F5 2.049044 1_555
Co6 F7 2.135403 1_565
Co6 F8 2.135403 1_555
Co6 F1 2.196830 1_555
Co6 F2 2.196830 1_555
Co7 O3 1.967971 1_655
Co7 F0 2.049044 1_555
Co7 F10 2.135403 1_665
Co7 F9 2.135403 1_655
Co7 F3 2.196830 1_555
Co7 F4 2.196830 1_555
F0 Li0 1.944643 1_555
F1 Li0 1.947139 1_555
F2 Li0 1.947139 1_555
F3 Li1 1.947139 1_555
F4 Li1 1.947139 1_555
F5 Li1 1.944643 1_556
F6 Li2 1.944643 1_554
F7 Li2 1.947139 1_555
F8 Li2 1.947139 1_555
F9 Li3 1.947139 1_555
F10 Li3 1.947139 1_555
F11 Li3 1.944643 1_555
