# generated using pymatgen
data_LiMn3(O2F)2
_symmetry_space_group_name_H-M   'P 1'
_cell_length_a   5.27389574
_cell_length_b   5.58467718
_cell_length_c   4.92738372
_cell_angle_alpha   113.62542352
_cell_angle_beta   63.94105132
_cell_angle_gamma   120.67994574
_symmetry_Int_Tables_number   1
_chemical_formula_structural   LiMn3(O2F)2
_chemical_formula_sum   'Li1 Mn3 O4 F2'
_cell_volume   109.15615724
_cell_formula_units_Z   1
loop_
 _symmetry_equiv_pos_site_id
 _symmetry_equiv_pos_as_xyz
  1  'x, y, z'
loop_
 _atom_site_type_symbol
 _atom_site_label
 _atom_site_symmetry_multiplicity
 _atom_site_fract_x
 _atom_site_fract_y
 _atom_site_fract_z
 _atom_site_occupancy
  Li  Li0  1  0.84380300  0.62227100  0.93767100  1
  Mn  Mn0  1  0.15181400  0.44490400  0.14719300  1
  Mn  Mn1  1  0.35368600  0.03596800  0.31823400  1
  Mn  Mn2  1  0.66964800  0.96473000  0.65220400  1
  O  O0  1  0.06655900  0.18980800  0.38270400  1
  O  O1  1  0.51087800  0.75855200  0.29561000  1
  O  O2  1  0.27221500  0.76012700  0.94830000  1
  O  O3  1  0.77966300  0.24738200  0.02331500  1
  F  F0  1  0.43428200  0.25164100  0.72056800  1
  F  F1  1  0.91745000  0.72461900  0.57420100  1
loop_
_geom_bond_atom_site_label_1
_geom_bond_atom_site_label_2
_geom_bond_distance
_geom_bond_site_symmetry_2
Li0 O2 1.999224 1_655
Li0 O1 2.083223 1_556
Li0 O3 2.129748 1_556
Mn0 O3 1.935212 1_455
Mn0 O0 1.947141 1_555
Mn0 O1 1.998508 1_555
Mn0 O2 2.039130 1_554
Mn1 O2 1.908492 1_544
Mn1 O0 1.954055 1_555
Mn1 O1 2.047197 1_545
Mn1 O3 2.086348 1_555
Mn2 O1 1.949722 1_555
Mn2 O3 1.963706 1_566
Mn2 O0 1.983865 1_665
Mn2 O2 2.008210 1_555
F0 Mn1 1.966108 1_555
F0 Mn0 2.207724 1_556
F0 Mn2 2.334815 1_545
F0 Li0 2.405508 1_555
F0 F1 2.652177 1_555
F1 Li0 1.915165 1_555
F1 Mn2 2.141899 1_555
F1 Mn1 2.243479 1_665
F1 Mn0 2.333666 1_655
