# generated using pymatgen
data_Li3CrO4
_symmetry_space_group_name_H-M   'P 1'
_cell_length_a   7.91422119
_cell_length_b   5.43654074
_cell_length_c   5.15087932
_cell_angle_alpha   64.24148534
_cell_angle_beta   110.03267173
_cell_angle_gamma   99.26934674
_symmetry_Int_Tables_number   1
_chemical_formula_structural   Li3CrO4
_chemical_formula_sum   'Li6 Cr2 O8'
_cell_volume   187.50410317
_cell_formula_units_Z   2
loop_
 _symmetry_equiv_pos_site_id
 _symmetry_equiv_pos_as_xyz
  1  'x, y, z'
loop_
 _atom_site_type_symbol
 _atom_site_label
 _atom_site_symmetry_multiplicity
 _atom_site_fract_x
 _atom_site_fract_y
 _atom_site_fract_z
 _atom_site_occupancy
  Li  Li0  1  0.19554600  0.29632300  0.41733000  1
  Li  Li1  1  0.45828400  0.79331500  0.43829000  1
  Li  Li2  1  0.53505900  0.29745200  0.56484100  1
  Li  Li3  1  0.57852300  0.72433600  0.04382800  1
  Li  Li4  1  0.82712000  0.67447800  0.62140700  1
  Li  Li5  1  0.99494100  0.20040300  0.80160800  1
  Cr  Cr0  1  0.22836900  0.71420400  0.81697900  1
  Cr  Cr1  1  0.76345600  0.27631900  0.17343200  1
  O  O0  1  0.04843600  0.87867100  0.77226100  1
  O  O1  1  0.18318000  0.47429300  0.67665600  1
  O  O2  1  0.37541400  0.96411600  0.64174300  1
  O  O3  1  0.36277000  0.56658200  0.20146300  1
  O  O4  1  0.63376100  0.51891900  0.83184100  1
  O  O5  1  0.66461000  0.95603100  0.26170200  1
  O  O6  1  0.76590000  0.37660200  0.45184200  1
  O  O7  1  0.96362100  0.27535400  0.11868400  1
loop_
_geom_bond_atom_site_label_1
_geom_bond_atom_site_label_2
_geom_bond_distance
_geom_bond_site_symmetry_2
Li0 O7 1.974584 1_455
Li0 O1 1.993321 1_555
Li0 O3 2.026925 1_555
Li0 O2 2.123861 1_545
Li0 O0 2.617646 1_545
Li1 O2 1.975716 1_555
Li1 O3 1.988439 1_555
Li1 O5 2.032032 1_555
Li1 O4 2.091322 1_555
Li2 O3 2.004309 1_555
Li2 O2 2.004659 1_545
Li2 O6 2.029575 1_555
Li2 O4 2.086014 1_555
Li3 O5 1.933544 1_555
Li3 O4 2.043214 1_554
Li3 O3 2.045305 1_555
Li3 O2 2.149473 1_554
Li3 O6 2.346176 1_555
Li4 O5 1.991641 1_555
Li4 O0 2.023587 1_655
Li4 O4 2.038288 1_555
Li4 O6 2.075272 1_555
Li4 O7 2.542607 1_556
Li5 O0 1.942598 1_645
Li5 O7 1.945045 1_556
Li5 O1 1.990007 1_655
Li5 O6 2.066688 1_555
Cr0 O1 1.686265 1_555
Cr0 O0 1.699072 1_555
Cr0 O3 1.774249 1_556
Cr0 O2 1.777463 1_555
Cr1 O7 1.702676 1_555
Cr1 O5 1.722623 1_545
Cr1 O6 1.735300 1_555
Cr1 O4 1.752349 1_554
