# generated using pymatgen
data_Li2CuSb(PO4)2
_symmetry_space_group_name_H-M   'P 1'
_cell_length_a   6.55658600
_cell_length_b   4.79947300
_cell_length_c   10.66260279
_cell_angle_alpha   87.10650719
_cell_angle_beta   90.00000000
_cell_angle_gamma   90.00000000
_symmetry_Int_Tables_number   1
_chemical_formula_structural   Li2CuSb(PO4)2
_chemical_formula_sum   'Li4 Cu2 Sb2 P4 O16'
_cell_volume   335.10469221
_cell_formula_units_Z   2
loop_
 _symmetry_equiv_pos_site_id
 _symmetry_equiv_pos_as_xyz
  1  'x, y, z'
loop_
 _atom_site_type_symbol
 _atom_site_label
 _atom_site_symmetry_multiplicity
 _atom_site_fract_x
 _atom_site_fract_y
 _atom_site_fract_z
 _atom_site_occupancy
  Li  Li0  1  0.00000000  0.00000000  0.00000000  1
  Li  Li1  1  0.50000000  0.00000000  0.00000000  1
  Li  Li2  1  0.00000000  0.50000000  0.50000000  1
  Li  Li3  1  0.50000000  0.50000000  0.50000000  1
  Cu  Cu0  1  0.25000000  0.96715700  0.70864000  1
  Cu  Cu1  1  0.75000000  0.03284300  0.29136000  1
  Sb  Sb0  1  0.75000000  0.47613100  0.78647800  1
  Sb  Sb1  1  0.25000000  0.52386900  0.21352200  1
  P  P0  1  0.25000000  0.40927000  0.91602400  1
  P  P1  1  0.75000000  0.91057400  0.58617100  1
  P  P2  1  0.25000000  0.08942600  0.41382900  1
  P  P3  1  0.75000000  0.59073000  0.08397600  1
  O  O0  1  0.75000000  0.74123300  0.94474800  1
  O  O1  1  0.25000000  0.72702800  0.92200900  1
  O  O2  1  0.05877000  0.28606700  0.85265200  1
  O  O3  1  0.44123000  0.28606700  0.85265200  1
  O  O4  1  0.56250000  0.78247000  0.66599400  1
  O  O5  1  0.93750000  0.78247000  0.66599400  1
  O  O6  1  0.75000000  0.23102600  0.57642800  1
  O  O7  1  0.25000000  0.22215900  0.54297700  1
  O  O8  1  0.75000000  0.77784100  0.45702300  1
  O  O9  1  0.25000000  0.76897400  0.42357200  1
  O  O10  1  0.06250000  0.21753000  0.33400600  1
  O  O11  1  0.43750000  0.21753000  0.33400600  1
  O  O12  1  0.55877000  0.71393300  0.14734800  1
  O  O13  1  0.94123000  0.71393300  0.14734800  1
  O  O14  1  0.75000000  0.27297200  0.07799100  1
  O  O15  1  0.25000000  0.25876700  0.05525200  1
loop_
_geom_bond_atom_site_label_1
_geom_bond_atom_site_label_2
_geom_bond_distance
_geom_bond_site_symmetry_2
Li0 O2 2.069818 1_554
Li0 O13 2.069818 1_445
Li0 O15 2.156426 1_555
Li0 O0 2.156426 1_444
Li0 O14 2.281392 1_455
Li0 O1 2.281392 1_544
Li1 O3 2.069818 1_554
Li1 O12 2.069818 1_545
Li1 O15 2.156426 1_555
Li1 O0 2.156426 1_544
Li1 O14 2.281392 1_555
Li1 O1 2.281392 1_544
Li2 O7 2.147858 1_555
Li2 O8 2.147858 1_455
Li2 O9 2.216122 1_555
Li2 O6 2.216122 1_455
Li2 O5 2.319647 1_455
Li2 O10 2.319647 1_555
Li3 O7 2.147858 1_555
Li3 O8 2.147858 1_555
Li3 O9 2.216122 1_555
Li3 O6 2.216122 1_555
Li3 O4 2.319647 1_555
Li3 O11 2.319647 1_555
Cu0 O7 2.097564 1_565
Cu0 O5 2.287202 1_455
Cu0 O4 2.287202 1_555
Cu0 O1 2.497892 1_555
Cu0 O2 2.551464 1_565
Cu0 O3 2.551464 1_565
Cu1 O8 2.097564 1_545
Cu1 O10 2.287202 1_655
Cu1 O11 2.287202 1_555
Cu1 O14 2.497892 1_555
Cu1 O12 2.551464 1_545
Cu1 O13 2.551464 1_545
O0 P3 1.617821 1_556
O0 Sb0 2.164150 1_555
O1 P0 1.529621 1_555
O2 P0 1.555193 1_555
O2 Sb0 2.315923 1_455
O3 P0 1.555193 1_555
O3 Sb0 2.315923 1_555
O4 P1 1.600287 1_555
O4 Sb0 2.265546 1_555
O5 P1 1.600287 1_555
O5 Sb0 2.265546 1_555
O6 P1 1.536264 1_545
O6 Sb0 2.581864 1_555
O7 P2 1.546181 1_555
O8 P1 1.546181 1_555
O9 P2 1.536264 1_565
O9 Sb1 2.581864 1_555
O10 P2 1.600287 1_555
O10 Sb1 2.265546 1_555
O11 P2 1.600287 1_555
O11 Sb1 2.265546 1_555
O12 P3 1.555193 1_555
O12 Sb1 2.315923 1_555
O13 P3 1.555193 1_555
O13 Sb1 2.315923 1_655
O14 P3 1.529621 1_555
O15 P0 1.617821 1_554
O15 Sb1 2.164150 1_555
