# generated using pymatgen
data_Be2GeO4
_symmetry_space_group_name_H-M   'P 1'
_cell_length_a   7.88735226
_cell_length_b   7.88735112
_cell_length_c   7.88735344
_cell_angle_alpha   108.00141950
_cell_angle_beta   108.00144167
_cell_angle_gamma   108.00145913
_symmetry_Int_Tables_number   1
_chemical_formula_structural   Be2GeO4
_chemical_formula_sum   'Be12 Ge6 O24'
_cell_volume   396.94662068
_cell_formula_units_Z   6
loop_
 _symmetry_equiv_pos_site_id
 _symmetry_equiv_pos_as_xyz
  1  'x, y, z'
loop_
 _atom_site_type_symbol
 _atom_site_label
 _atom_site_symmetry_multiplicity
 _atom_site_fract_x
 _atom_site_fract_y
 _atom_site_fract_z
 _atom_site_occupancy
  Be  Be0  1  0.29288138  0.89029441  0.06884417  1
  Be  Be1  1  0.93115587  0.70711835  0.10970520  1
  Be  Be2  1  0.39509387  0.62893956  0.22041795  1
  Be  Be3  1  0.10970559  0.93115594  0.70711876  1
  Be  Be4  1  0.77958226  0.60490658  0.37106106  1
  Be  Be5  1  0.37106081  0.77958233  0.60490639  1
  Be  Be6  1  0.62893907  0.22041762  0.39509336  1
  Be  Be7  1  0.22041749  0.39509356  0.62893885  1
  Be  Be8  1  0.89029443  0.06884400  0.29288110  1
  Be  Be9  1  0.60490626  0.37106043  0.77958192  1
  Be  Be10  1  0.06884412  0.29288143  0.89029481  1
  Be  Be11  1  0.70711851  0.10970554  0.93115590  1
  Ge  Ge0  1  0.73133808  0.96223746  0.55517874  1
  Ge  Ge1  1  0.44482108  0.26866161  0.03776326  1
  Ge  Ge2  1  0.03776310  0.44482098  0.26866202  1
  Ge  Ge3  1  0.96223737  0.55517914  0.73133797  1
  Ge  Ge4  1  0.55517863  0.73133830  0.96223704  1
  Ge  Ge5  1  0.26866133  0.03776218  0.44482054  1
  O  O0  1  0.80549681  0.83536644  0.13521587  1
  O  O1  1  0.40897455  0.75203948  0.08823954  1
  O  O2  1  0.16463325  0.86478440  0.19450350  1
  O  O3  1  0.24796062  0.91176069  0.59102583  1
  O  O4  1  0.47998521  0.78871525  0.45582993  1
  O  O5  1  0.16892503  0.45579742  0.12485295  1
  O  O6  1  0.87514738  0.83107510  0.54420303  1
  O  O7  1  0.91176025  0.59102610  0.24796050  1
  O  O8  1  0.54417039  0.52001509  0.21128554  1
  O  O9  1  0.21128535  0.54417141  0.52001699  1
  O  O10  1  0.86478417  0.19450305  0.16463307  1
  O  O11  1  0.54420252  0.87514722  0.83107524  1
  O  O12  1  0.45579727  0.12485313  0.16892468  1
  O  O13  1  0.13521566  0.80549652  0.83536656  1
  O  O14  1  0.78871453  0.45582858  0.47998288  1
  O  O15  1  0.45582826  0.47998241  0.78871367  1
  O  O16  1  0.08823943  0.40897398  0.75203939  1
  O  O17  1  0.12485272  0.16892494  0.45579712  1
  O  O18  1  0.83107462  0.54420258  0.87514691  1
  O  O19  1  0.52001718  0.21128589  0.54417142  1
  O  O20  1  0.75203956  0.08823960  0.40897412  1
  O  O21  1  0.83536676  0.13521618  0.80549710  1
  O  O22  1  0.59102608  0.24796067  0.91176019  1
  O  O23  1  0.19450313  0.16463347  0.86478391  1
loop_
_geom_bond_atom_site_label_1
_geom_bond_atom_site_label_2
_geom_bond_distance
_geom_bond_site_symmetry_2
Be0 O2 1.631911 1_555
Be0 O1 1.638490 1_555
Be0 O13 1.641401 1_554
Be0 O12 1.642569 1_565
Be1 O0 1.631910 1_555
Be1 O7 1.638487 1_555
Be1 O2 1.641399 1_655
Be1 O18 1.642566 1_554
Be2 O5 1.625511 1_555
Be2 O1 1.634646 1_555
Be2 O4 1.657663 1_555
Be2 O8 1.662621 1_555
Be3 O13 1.631909 1_555
Be3 O3 1.638489 1_555
Be3 O23 1.641400 1_565
Be3 O6 1.642566 1_455
Be4 O6 1.625509 1_555
Be4 O7 1.634648 1_555
Be4 O8 1.657661 1_555
Be4 O14 1.662615 1_555
Be5 O11 1.625510 1_555
Be5 O3 1.634648 1_555
Be5 O9 1.657657 1_555
Be5 O4 1.662620 1_555
Be6 O12 1.625510 1_555
Be6 O20 1.634648 1_555
Be6 O14 1.657658 1_555
Be6 O19 1.662616 1_555
Be7 O17 1.625509 1_555
Be7 O16 1.634648 1_555
Be7 O15 1.657656 1_555
Be7 O9 1.662614 1_555
Be8 O10 1.631908 1_555
Be8 O20 1.638489 1_555
Be8 O0 1.641400 1_545
Be8 O17 1.642567 1_655
Be9 O18 1.625508 1_555
Be9 O22 1.634644 1_555
Be9 O19 1.657654 1_555
Be9 O15 1.662616 1_555
Be10 O23 1.631909 1_555
Be10 O16 1.638489 1_555
Be10 O21 1.641398 1_455
Be10 O5 1.642566 1_556
Be11 O21 1.631909 1_555
Be11 O22 1.638487 1_555
Be11 O10 1.641399 1_556
Be11 O11 1.642567 1_545
Ge0 O20 1.751733 1_565
Ge0 O21 1.753457 1_565
Ge0 O6 1.759241 1_555
Ge0 O4 1.765619 1_555
Ge1 O22 1.751741 1_554
Ge1 O23 1.753456 1_554
Ge1 O12 1.759230 1_555
Ge1 O8 1.765623 1_555
Ge2 O7 1.751741 1_455
Ge2 O10 1.753454 1_455
Ge2 O5 1.759237 1_555
Ge2 O9 1.765630 1_555
Ge3 O16 1.751737 1_655
Ge3 O13 1.753450 1_655
Ge3 O18 1.759241 1_555
Ge3 O14 1.765632 1_555
Ge4 O1 1.751732 1_556
Ge4 O0 1.753457 1_556
Ge4 O11 1.759235 1_555
Ge4 O15 1.765638 1_555
Ge5 O3 1.751733 1_545
Ge5 O2 1.753448 1_545
Ge5 O17 1.759239 1_555
Ge5 O19 1.765638 1_555
