# generated using pymatgen
data_Li4Mn5O9F
_symmetry_space_group_name_H-M   'P 1'
_cell_length_a   5.16999100
_cell_length_b   5.40238175
_cell_length_c   7.88599415
_cell_angle_alpha   105.87290740
_cell_angle_beta   103.27518599
_cell_angle_gamma   102.38055000
_symmetry_Int_Tables_number   1
_chemical_formula_structural   Li4Mn5O9F
_chemical_formula_sum   'Li4 Mn5 O9 F1'
_cell_volume   196.95124679
_cell_formula_units_Z   1
loop_
 _symmetry_equiv_pos_site_id
 _symmetry_equiv_pos_as_xyz
  1  'x, y, z'
loop_
 _atom_site_type_symbol
 _atom_site_label
 _atom_site_symmetry_multiplicity
 _atom_site_fract_x
 _atom_site_fract_y
 _atom_site_fract_z
 _atom_site_occupancy
  Li  Li0  1  0.89732500  0.80676100  0.30494100  1
  Li  Li1  1  0.49508900  0.96206800  0.47627300  1
  Li  Li2  1  0.11234600  0.18763900  0.69328700  1
  Li  Li3  1  0.71353500  0.41646900  0.91747900  1
  Mn  Mn0  1  0.20141100  0.40102900  0.39370400  1
  Mn  Mn1  1  0.00915800  0.98650400  0.00611700  1
  Mn  Mn2  1  0.60169800  0.18510400  0.20100900  1
  Mn  Mn3  1  0.79192200  0.59221800  0.59807500  1
  Mn  Mn4  1  0.38988800  0.79183200  0.80513500  1
  O  O0  1  0.94000400  0.34211200  0.14613800  1
  O  O1  1  0.55400700  0.59485300  0.37172800  1
  O  O2  1  0.13734700  0.79551300  0.57009800  1
  O  O3  1  0.35411500  0.13936600  0.95174000  1
  O  O4  1  0.66575200  0.80257000  0.02722300  1
  O  O5  1  0.27910900  0.03233500  0.26564300  1
  O  O6  1  0.86411700  0.21139800  0.43615800  1
  O  O7  1  0.43870800  0.45796600  0.65310600  1
  O  O8  1  0.00413600  0.63340500  0.84197800  1
  F  F0  1  0.74921400  0.05239700  0.73793700  1
loop_
_geom_bond_atom_site_label_1
_geom_bond_atom_site_label_2
_geom_bond_distance
_geom_bond_site_symmetry_2
Li0 O1 2.150872 1_555
Li0 O2 2.196842 1_655
Li0 O6 2.209983 1_565
Li0 O5 2.221069 1_665
Li0 O4 2.233249 1_555
Li0 O0 2.561834 1_555
Li1 O5 1.955715 1_565
Li1 O1 2.046432 1_555
Li1 O6 2.227709 1_565
Li1 O2 2.248746 1_555
Li1 O7 2.772142 1_565
Li2 O2 2.120728 1_545
Li2 O7 2.126541 1_555
Li2 O6 2.189288 1_455
Li2 O3 2.246107 1_555
Li2 O8 2.611833 1_555
Li3 O8 2.005672 1_655
Li3 O0 2.100495 1_556
Li3 O4 2.119561 1_556
Li3 O3 2.241860 1_555
Li3 O7 2.333982 1_555
Mn0 O1 1.968591 1_555
Mn0 O6 1.972853 1_455
Mn0 O0 2.000791 1_455
Mn0 O7 2.031202 1_555
Mn0 O5 2.139553 1_555
Mn0 O2 2.340761 1_555
Mn1 O4 1.907054 1_455
Mn1 O8 1.981833 1_554
Mn1 O3 1.989938 1_564
Mn1 O0 2.086453 1_465
Mn1 O5 2.112017 1_565
Mn2 O5 1.937194 1_555
Mn2 O0 1.969273 1_555
Mn2 O6 1.979245 1_555
Mn2 O3 2.001674 1_554
Mn2 O4 2.282834 1_545
Mn2 O1 2.351534 1_555
Mn3 O8 1.909144 1_655
Mn3 O1 1.926748 1_555
Mn3 O2 1.979035 1_655
Mn3 O7 2.004308 1_555
Mn3 O6 2.261314 1_555
Mn4 O4 1.966366 1_556
Mn4 O7 1.976263 1_555
Mn4 O3 1.988874 1_565
Mn4 O2 2.015053 1_555
Mn4 O8 2.112941 1_555
F0 Li2 2.009607 1_655
F0 Li1 2.037502 1_545
F0 Li3 2.158572 1_555
F0 Mn4 2.335007 1_545
F0 Mn1 2.391053 1_646
F0 Mn3 2.508602 1_545
