# generated using pymatgen
data_Rb2S2O7
_symmetry_space_group_name_H-M   'P 1'
_cell_length_a   13.19959800
_cell_length_b   7.73514979
_cell_length_c   7.84376040
_cell_angle_alpha   92.24587646
_cell_angle_beta   99.81936629
_cell_angle_gamma   91.69380604
_symmetry_Int_Tables_number   1
_chemical_formula_structural   Rb2S2O7
_chemical_formula_sum   'Rb8 S8 O28'
_cell_volume   787.98196435
_cell_formula_units_Z   4
loop_
 _symmetry_equiv_pos_site_id
 _symmetry_equiv_pos_as_xyz
  1  'x, y, z'
loop_
 _atom_site_type_symbol
 _atom_site_label
 _atom_site_symmetry_multiplicity
 _atom_site_fract_x
 _atom_site_fract_y
 _atom_site_fract_z
 _atom_site_occupancy
  Rb  Rb0  1  0.87546300  0.13223000  0.11597300  1
  Rb  Rb1  1  0.37855300  0.15477900  0.77673400  1
  Rb  Rb2  1  0.79579300  0.34248100  0.55633300  1
  Rb  Rb3  1  0.29442600  0.37193100  0.21503900  1
  Rb  Rb4  1  0.70557400  0.62806900  0.78496100  1
  Rb  Rb5  1  0.20420700  0.65751900  0.44366700  1
  Rb  Rb6  1  0.62144700  0.84522100  0.22326600  1
  Rb  Rb7  1  0.12453700  0.86777000  0.88402700  1
  S  S0  1  0.86111300  0.08480100  0.65837900  1
  S  S1  1  0.38645700  0.10711800  0.27849200  1
  S  S2  1  0.75989800  0.39104500  0.06548500  1
  S  S3  1  0.27537700  0.41735200  0.70238500  1
  S  S4  1  0.72462300  0.58264800  0.29761500  1
  S  S5  1  0.24010200  0.60895500  0.93451500  1
  S  S6  1  0.61354300  0.89288200  0.72150800  1
  S  S7  1  0.13888700  0.91519900  0.34162100  1
  O  O0  1  0.27100200  0.02394000  0.41044700  1
  O  O1  1  0.50416000  0.05033600  0.19168700  1
  O  O2  1  0.99488000  0.05404100  0.77208900  1
  O  O3  1  0.92055600  0.12657100  0.49517400  1
  O  O4  1  0.75278600  0.14677700  0.75009600  1
  O  O5  1  0.26075200  0.14259200  0.16023000  1
  O  O6  1  0.46841100  0.18527800  0.40713100  1
  O  O7  1  0.61199900  0.30870000  0.02999400  1
  O  O8  1  0.89385700  0.36173100  0.18095100  1
  O  O9  1  0.18732000  0.34321300  0.81933500  1
  O  O10  1  0.44314000  0.39688300  0.64907700  1
  O  O11  1  0.82201200  0.44747800  0.91589400  1
  O  O12  1  0.65720000  0.47153900  0.18440700  1
  O  O13  1  0.16403500  0.44208500  0.55883200  1
  O  O14  1  0.83596500  0.55791500  0.44116800  1
  O  O15  1  0.34280000  0.52846100  0.81559300  1
  O  O16  1  0.17798800  0.55252200  0.08410600  1
  O  O17  1  0.55686000  0.60311700  0.35092300  1
  O  O18  1  0.81268000  0.65678700  0.18066500  1
  O  O19  1  0.10614300  0.63826900  0.81904900  1
  O  O20  1  0.38800100  0.69130000  0.97000600  1
  O  O21  1  0.53158900  0.81472200  0.59286900  1
  O  O22  1  0.73924800  0.85740800  0.83977000  1
  O  O23  1  0.24721400  0.85322300  0.24990400  1
  O  O24  1  0.07944400  0.87342900  0.50482600  1
  O  O25  1  0.00512000  0.94595900  0.22791100  1
  O  O26  1  0.49584000  0.94966400  0.80831300  1
  O  O27  1  0.72899800  0.97606000  0.58955300  1
loop_
_geom_bond_atom_site_label_1
_geom_bond_atom_site_label_2
_geom_bond_distance
_geom_bond_site_symmetry_2
Rb0 S2 2.555040 1_555
Rb1 S3 2.511056 1_555
Rb2 S0 2.312602 1_555
Rb3 S1 2.437208 1_555
Rb4 S6 2.437208 1_555
Rb5 S7 2.312602 1_555
Rb6 S4 2.511056 1_555
Rb7 S5 2.555040 1_555
O0 O23 1.771553 1_545
O0 S7 1.896469 1_545
O0 S1 2.083247 1_555
O0 O5 2.184161 1_555
O0 Rb1 3.096792 1_555
O1 S1 1.856877 1_555
O1 O6 2.081048 1_555
O1 Rb6 2.240668 1_545
O2 S0 1.863876 1_555
O2 O3 2.322986 1_555
O2 Rb7 2.346969 1_645
O3 S0 1.648882 1_555
O3 Rb2 2.469945 1_555
O4 S0 1.776585 1_555
O4 Rb2 2.312472 1_555
O5 S1 1.791865 1_555
O5 Rb3 1.832430 1_555
O6 S1 1.447431 1_555
O7 S2 2.005379 1_555
O8 Rb0 1.825250 1_555
O8 S2 1.868637 1_555
O9 S3 1.699072 1_555
O9 S5 2.254331 1_555
O9 Rb1 3.012433 1_555
O10 O15 2.249776 1_555
O10 S3 2.331276 1_555
O10 Rb1 2.362248 1_555
O10 O6 2.529155 1_555
O11 S2 1.608300 1_556
O11 Rb4 2.251491 1_555
O11 O8 2.265930 1_556
O12 S4 1.394487 1_555
O12 O7 1.731763 1_555
O12 S2 1.879102 1_555
O12 O17 2.249776 1_555
O13 S3 1.712734 1_555
O13 Rb5 2.025642 1_555
O13 O9 2.185567 1_555
O14 S4 1.712734 1_555
O14 Rb2 2.025642 1_555
O14 O18 2.185567 1_555
O15 S3 1.394487 1_555
O15 O20 1.731763 1_555
O15 S5 1.879102 1_555
O16 S5 1.608300 1_554
O16 Rb3 2.251491 1_555
O16 O19 2.265930 1_554
O17 S4 2.331276 1_555
O17 Rb6 2.362248 1_555
O17 O21 2.529155 1_555
O18 S4 1.699072 1_555
O18 S2 2.254331 1_555
O18 O8 2.549741 1_555
O18 Rb6 3.012433 1_555
O19 Rb7 1.825250 1_555
O19 S5 1.868637 1_555
O19 O9 2.549741 1_555
O20 S5 2.005379 1_555
O21 S6 1.447431 1_555
O21 O26 2.081048 1_555
O22 S6 1.791865 1_555
O22 Rb4 1.832430 1_555
O22 O27 2.184161 1_555
O22 O4 2.383137 1_565
O23 S7 1.776585 1_555
O23 Rb5 2.312472 1_555
O23 O5 2.383137 1_565
O24 S7 1.648882 1_555
O24 O25 2.322986 1_555
O24 Rb5 2.469945 1_555
O25 S7 1.863876 1_555
O25 Rb0 2.346969 1_465
O26 S6 1.856877 1_555
O26 Rb1 2.240668 1_565
O27 O4 1.771553 1_565
O27 S0 1.896469 1_565
O27 S6 2.083247 1_555
O27 Rb6 3.096792 1_555
