# generated using pymatgen
data_Li2Cr2FeO6
_symmetry_space_group_name_H-M   'P 1'
_cell_length_a   6.64587477
_cell_length_b   6.64389836
_cell_length_c   8.41305602
_cell_angle_alpha   70.94348005
_cell_angle_beta   109.10069327
_cell_angle_gamma   96.47082648
_symmetry_Int_Tables_number   1
_chemical_formula_structural   Li2Cr2FeO6
_chemical_formula_sum   'Li6 Cr6 Fe3 O18'
_cell_volume   331.77862354
_cell_formula_units_Z   3
loop_
 _symmetry_equiv_pos_site_id
 _symmetry_equiv_pos_as_xyz
  1  'x, y, z'
loop_
 _atom_site_type_symbol
 _atom_site_label
 _atom_site_symmetry_multiplicity
 _atom_site_fract_x
 _atom_site_fract_y
 _atom_site_fract_z
 _atom_site_occupancy
  Li  Li0  1  0.33241500  0.32748500  0.50264000  1
  Li  Li1  1  0.33425200  0.00584800  0.83069300  1
  Li  Li2  1  0.66868100  0.66656300  0.50112600  1
  Li  Li3  1  0.99798600  0.66677000  0.83220800  1
  Li  Li4  1  0.66316900  0.99857400  0.16514500  1
  Li  Li5  1  0.00349800  0.33476000  0.16818800  1
  Cr  Cr0  1  0.66561400  0.66098400  0.99810600  1
  Cr  Cr1  1  0.66735300  0.33374600  0.33215900  1
  Cr  Cr2  1  0.66919900  0.00056500  0.66559800  1
  Cr  Cr3  1  0.99931400  0.99958800  0.00117400  1
  Cr  Cr4  1  0.00105300  0.67234900  0.33522700  1
  Cr  Cr5  1  0.99746800  0.33276800  0.66773600  1
  Fe  Fe0  1  0.33333300  0.66666700  0.66666700  1
  Fe  Fe1  1  0.33427900  0.33407400  0.99889600  1
  Fe  Fe2  1  0.33238700  0.99925900  0.33443800  1
  O  O0  1  0.01925000  0.99144900  0.24259100  1
  O  O1  1  0.00982100  0.64615400  0.58277600  1
  O  O2  1  0.02686900  0.32130700  0.91818000  1
  O  O3  1  0.35468300  0.99699700  0.57542300  1
  O  O4  1  0.34368100  0.64077300  0.91377400  1
  O  O5  1  0.67888000  0.97592800  0.91427800  1
  O  O6  1  0.32298600  0.69256000  0.41955900  1
  O  O7  1  0.31198300  0.33633600  0.75791100  1
  O  O8  1  0.65684600  0.68717900  0.75055700  1
  O  O9  1  0.34450700  0.30551900  0.24769000  1
  O  O10  1  0.68799200  0.65232000  0.24619400  1
  O  O11  1  0.68025600  0.31948800  0.57256200  1
  O  O12  1  0.32216000  0.02781400  0.08564300  1
  O  O13  1  0.64741600  0.34188500  0.09074200  1
  O  O14  1  0.63979800  0.01202600  0.41515400  1
  O  O15  1  0.97867500  0.68101400  0.08713900  1
  O  O16  1  0.98778600  0.35740600  0.41905600  1
  O  O17  1  0.98641000  0.01384500  0.76077100  1
loop_
_geom_bond_atom_site_label_1
_geom_bond_atom_site_label_2
_geom_bond_distance
_geom_bond_site_symmetry_2
Li0 O3 2.086634 1_545
Li0 O16 2.176475 1_455
Li0 O11 2.193206 1_555
Li0 O7 2.215681 1_555
Li0 O9 2.224466 1_555
Li0 O6 2.296553 1_555
Li1 O7 2.086635 1_555
Li1 O5 2.176468 1_545
Li1 O17 2.193212 1_455
Li1 O3 2.215670 1_545
Li1 O12 2.224466 1_556
Li1 O4 2.296553 1_545
Li2 O1 2.149315 1_655
Li2 O8 2.174096 1_555
Li2 O14 2.180004 1_565
Li2 O6 2.181568 1_555
Li2 O11 2.188422 1_555
Li2 O10 2.222796 1_555
Li3 O8 2.149315 1_555
Li3 O1 2.174105 1_655
Li3 O2 2.180004 1_655
Li3 O4 2.181569 1_655
Li3 O17 2.188422 1_565
Li3 O15 2.222790 1_556
Li4 O12 2.154896 1_565
Li4 O13 2.164255 1_565
Li4 O10 2.184481 1_555
Li4 O14 2.189940 1_565
Li4 O5 2.200709 1_554
Li4 O0 2.241194 1_655
Li5 O9 2.154896 1_555
Li5 O0 2.164254 1_545
Li5 O15 2.184481 1_455
Li5 O2 2.189934 1_554
Li5 O16 2.200720 1_455
Li5 O13 2.241201 1_455
Cr0 O15 1.972379 1_556
Cr0 O5 1.979646 1_555
Cr0 O13 2.010382 1_556
Cr0 O8 2.014266 1_555
Cr0 O10 2.025357 1_556
Cr0 O4 2.025583 1_555
Cr1 O11 1.967269 1_555
Cr1 O13 1.974699 1_555
Cr1 O10 2.005405 1_555
Cr1 O16 2.018634 1_555
Cr1 O14 2.027497 1_555
Cr1 O9 2.035240 1_555
Cr2 O8 1.969989 1_545
Cr2 O3 1.976854 1_545
Cr2 O17 1.998165 1_555
Cr2 O11 2.006813 1_555
Cr2 O5 2.024528 1_545
Cr2 O14 2.027948 1_555
Cr3 O17 1.967269 1_564
Cr3 O0 1.974701 1_655
Cr3 O15 2.005405 1_555
Cr3 O5 2.018640 1_554
Cr3 O2 2.027491 1_664
Cr3 O12 2.035240 1_665
Cr4 O10 1.972378 1_455
Cr4 O16 1.979640 1_455
Cr4 O0 2.010387 1_555
Cr4 O1 2.014266 1_555
Cr4 O15 2.025355 1_455
Cr4 O6 2.025583 1_555
Cr5 O1 1.969990 1_655
Cr5 O7 1.976848 1_655
Cr5 O11 1.998172 1_555
Cr5 O17 2.006813 1_555
Cr5 O16 2.024525 1_555
Cr5 O2 2.027948 1_655
Fe0 O4 2.007936 1_555
Fe0 O6 2.007948 1_555
Fe0 O1 2.035424 1_555
Fe0 O8 2.035429 1_555
Fe0 O3 2.080141 1_555
Fe0 O7 2.080148 1_555
Fe1 O12 1.926445 1_556
Fe1 O4 1.927842 1_555
Fe1 O2 1.932047 1_555
Fe1 O13 1.969785 1_556
Fe1 O7 1.979043 1_555
Fe1 O9 2.017979 1_556
Fe2 O9 1.926446 1_565
Fe2 O6 1.927842 1_555
Fe2 O14 1.932054 1_565
Fe2 O0 1.969786 1_555
Fe2 O3 1.979043 1_555
Fe2 O12 2.017990 1_565
