# generated using pymatgen
data_Li3V2P4(HO8)2
_symmetry_space_group_name_H-M   'P 1'
_cell_length_a   4.85802773
_cell_length_b   16.13055584
_cell_length_c   7.58003871
_cell_angle_alpha   90.83780625
_cell_angle_beta   104.74799664
_cell_angle_gamma   89.38549613
_symmetry_Int_Tables_number   1
_chemical_formula_structural   Li3V2P4(HO8)2
_chemical_formula_sum   'Li6 V4 P8 H4 O32'
_cell_volume   574.34656622
_cell_formula_units_Z   2
loop_
 _symmetry_equiv_pos_site_id
 _symmetry_equiv_pos_as_xyz
  1  'x, y, z'
loop_
 _atom_site_type_symbol
 _atom_site_label
 _atom_site_symmetry_multiplicity
 _atom_site_fract_x
 _atom_site_fract_y
 _atom_site_fract_z
 _atom_site_occupancy
  Li  Li0  1  0.38684000  0.43361900  0.84441500  1
  Li  Li1  1  0.38687500  0.93342900  0.84434400  1
  Li  Li2  1  0.60465500  0.06659800  0.15674500  1
  Li  Li3  1  0.60485500  0.56641800  0.15659300  1
  Li  Li4  1  0.90780000  0.31629500  0.35617000  1
  Li  Li5  1  0.90842400  0.81617500  0.35639500  1
  V  V0  1  0.49332600  0.74860900  0.99665700  1
  V  V1  1  0.00020600  0.00238100  0.50049200  1
  V  V2  1  0.49292500  0.24871600  0.99639300  1
  V  V3  1  0.00001300  0.50245900  0.50056600  1
  P  P0  1  0.13000900  0.17599400  0.26481600  1
  P  P1  1  0.13024800  0.67587100  0.26497000  1
  P  P2  1  0.36714300  0.42380500  0.23042900  1
  P  P3  1  0.36748200  0.92381600  0.23038400  1
  P  P4  1  0.63257800  0.07816000  0.76415600  1
  P  P5  1  0.63310600  0.57810600  0.76441500  1
  P  P6  1  0.87011400  0.32476300  0.73719400  1
  P  P7  1  0.87035900  0.82466000  0.73740200  1
  H  H0  1  0.51425100  0.25250100  0.50631500  1
  H  H1  1  0.51465800  0.75244000  0.50657900  1
  H  H2  1  0.97162500  0.00468600  0.98847100  1
  H  H3  1  0.97237500  0.50457400  0.98894800  1
  O  O0  1  0.12904800  0.27462400  0.85561200  1
  O  O1  1  0.12929300  0.77452900  0.85586100  1
  O  O2  1  0.01834800  0.09205200  0.30637800  1
  O  O3  1  0.01861400  0.59193100  0.30652600  1
  O  O4  1  0.15116800  0.41355700  0.34786000  1
  O  O5  1  0.15144800  0.91350600  0.34776700  1
  O  O6  1  0.25685600  0.22880300  0.43427000  1
  O  O7  1  0.25703200  0.72867300  0.43444400  1
  O  O8  1  0.37696100  0.02400900  0.66885700  1
  O  O9  1  0.37730700  0.52407900  0.66909500  1
  O  O10  1  0.54183400  0.16387100  0.82279300  1
  O  O11  1  0.54268500  0.66390600  0.82285400  1
  O  O12  1  0.24086200  0.46950400  0.05016000  1
  O  O13  1  0.24118600  0.96950100  0.05017100  1
  O  O14  1  0.34046700  0.16394800  0.13960900  1
  O  O15  1  0.34078100  0.66381100  0.13978400  1
  O  O16  1  0.65085400  0.33570000  0.85429500  1
  O  O17  1  0.65115400  0.83562900  0.85447300  1
  O  O18  1  0.75894700  0.02948600  0.94822000  1
  O  O19  1  0.75938600  0.52949900  0.94848200  1
  O  O20  1  0.48391000  0.33765700  0.18650900  1
  O  O21  1  0.48476500  0.83770500  0.18663800  1
  O  O22  1  0.61854200  0.47764800  0.33715000  1
  O  O23  1  0.61847000  0.97778500  0.33742100  1
  O  O24  1  0.73883500  0.27784000  0.55621500  1
  O  O25  1  0.73915300  0.77770200  0.55639400  1
  O  O26  1  0.84359300  0.08595000  0.64760100  1
  O  O27  1  0.84436500  0.58589400  0.64792000  1
  O  O28  1  0.98547000  0.40724700  0.68974400  1
  O  O29  1  0.98576200  0.90711100  0.68975700  1
  O  O30  1  0.86589900  0.22795300  0.15175800  1
  O  O31  1  0.86603300  0.72778200  0.15193500  1
loop_
_geom_bond_atom_site_label_1
_geom_bond_atom_site_label_2
_geom_bond_distance
_geom_bond_site_symmetry_2
Li0 O12 1.948866 1_556
Li0 O9 1.980229 1_555
Li0 O16 2.014081 1_555
Li0 O28 2.048606 1_455
Li0 O19 2.363731 1_555
Li1 O13 1.949478 1_556
Li1 O8 1.982243 1_565
Li1 O17 2.013172 1_555
Li1 O29 2.047207 1_455
Li1 O18 2.363841 1_565
Li2 O23 1.985192 1_545
Li2 O18 1.996120 1_554
Li2 O14 2.001950 1_555
Li2 O2 2.082686 1_655
Li2 O13 2.349381 1_545
Li3 O22 1.984154 1_555
Li3 O19 1.993132 1_554
Li3 O15 2.002365 1_555
Li3 O3 2.083816 1_655
Li3 O12 2.348963 1_555
Li4 O4 1.985896 1_655
Li4 O24 2.007485 1_555
Li4 O30 2.062509 1_555
Li4 O20 2.159308 1_555
Li4 O6 2.163259 1_655
Li5 O5 1.986232 1_655
Li5 O25 2.008177 1_555
Li5 O31 2.063129 1_555
Li5 O21 2.159099 1_555
Li5 O7 2.161793 1_655
H0 O24 1.138167 1_555
H0 O6 1.290120 1_555
H1 O25 1.137281 1_555
H1 O7 1.291543 1_555
H2 O18 1.074625 1_555
H2 O13 1.391305 1_646
H3 O19 1.076775 1_555
H3 O12 1.385738 1_656
O0 P6 1.570569 1_455
O0 V2 1.864142 1_555
O1 P7 1.570619 1_455
O1 V0 1.864829 1_555
O2 P0 1.530407 1_555
O2 V1 2.096654 1_555
O3 P1 1.530309 1_555
O3 V3 2.094511 1_555
O4 P2 1.550494 1_555
O4 V3 2.072959 1_555
O5 P3 1.550581 1_555
O5 V1 2.072962 1_565
O6 P0 1.526922 1_555
O7 P1 1.526911 1_555
O8 P4 1.541087 1_555
O8 V1 1.977826 1_555
O9 P5 1.540605 1_555
O9 V3 1.980308 1_555
O10 P4 1.540161 1_555
O10 V2 1.939236 1_555
O11 P5 1.540370 1_555
O11 V0 1.939354 1_555
O12 P2 1.542684 1_555
O13 P3 1.542251 1_555
O14 P0 1.571052 1_555
O14 V2 2.017721 1_554
O15 P1 1.571247 1_555
O15 V0 2.017838 1_554
O16 P6 1.557680 1_555
O16 V2 2.050735 1_555
O17 P7 1.557341 1_555
O17 V0 2.051297 1_555
O18 P4 1.589196 1_555
O19 P5 1.588603 1_555
O20 P2 1.558639 1_555
O20 V2 2.026634 1_554
O21 P3 1.558751 1_555
O21 V0 2.027227 1_554
O22 P2 1.549031 1_555
O22 V3 1.990364 1_655
O23 P3 1.549607 1_555
O23 V1 1.989666 1_665
O24 P6 1.547929 1_555
O25 P7 1.548302 1_555
O26 P4 1.521294 1_555
O26 V1 2.001356 1_655
O27 P5 1.521924 1_555
O27 V3 1.998714 1_655
O28 P6 1.531761 1_555
O28 V3 2.130339 1_655
O29 P7 1.531898 1_555
O29 V1 2.131377 1_665
O30 P0 1.587835 1_655
O30 V2 1.922038 1_554
O31 P1 1.587707 1_655
O31 V0 1.920951 1_554
