# generated using pymatgen
data_KCa4B22H18ClO46
_symmetry_space_group_name_H-M   'P 1'
_cell_length_a   6.63191800
_cell_length_b   6.64193129
_cell_length_c   24.25099371
_cell_angle_alpha   95.45227236
_cell_angle_beta   90.70687949
_cell_angle_gamma   119.39559387
_symmetry_Int_Tables_number   1
_chemical_formula_structural   KCa4B22H18ClO46
_chemical_formula_sum   'K1 Ca4 B22 H18 Cl1 O46'
_cell_volume   924.33832145
_cell_formula_units_Z   1
loop_
 _symmetry_equiv_pos_site_id
 _symmetry_equiv_pos_as_xyz
  1  'x, y, z'
loop_
 _atom_site_type_symbol
 _atom_site_label
 _atom_site_symmetry_multiplicity
 _atom_site_fract_x
 _atom_site_fract_y
 _atom_site_fract_z
 _atom_site_occupancy
  K  K0  1  0.97746100  0.96016100  0.97597700  1
  Ca  Ca0  1  0.19101300  0.34787800  0.83567200  1
  Ca  Ca1  1  0.27879700  0.60911800  0.41984200  1
  Ca  Ca2  1  0.50275900  0.97769000  0.09373500  1
  Ca  Ca3  1  0.80637000  0.65657300  0.51058000  1
  B  B0  1  0.96005600  0.91905700  0.38811300  1
  B  B1  1  0.01106800  0.89420000  0.11027800  1
  B  B2  1  0.69731900  0.09736400  0.40026500  1
  B  B3  1  0.60730300  0.57174900  0.08330600  1
  B  B4  1  0.23351600  0.16018600  0.52861400  1
  B  B5  1  0.59950100  0.84268600  0.83922600  1
  B  B6  1  0.76122800  0.44153900  0.73461000  1
  B  B7  1  0.29078100  0.94026400  0.84574900  1
  B  B8  1  0.77562900  0.49293600  0.38722500  1
  B  B9  1  0.83948200  0.66629400  0.29909600  1
  B  B10  1  0.42822000  0.82782000  0.63058000  1
  B  B11  1  0.92005900  0.24939300  0.52013700  1
  B  B12  1  0.12448000  0.18011500  0.19571300  1
  B  B13  1  0.50268400  0.99431500  0.54177100  1
  B  B14  1  0.86281300  0.66562900  0.82872100  1
  B  B15  1  0.38954100  0.19543100  0.40935200  1
  B  B16  1  0.16455900  0.25235000  0.71377100  1
  B  B17  1  0.68053200  0.23559600  0.81969900  1
  B  B18  1  0.18894000  0.31565900  0.10240100  1
  B  B19  1  0.54496400  0.01600500  0.21709100  1
  B  B20  1  0.31983100  0.56882200  0.54249600  1
  B  B21  1  0.92010700  0.48028400  0.08909500  1
  H  H0  1  0.99799200  0.91341700  0.74347700  1
  H  H1  1  0.37525200  0.64879200  0.18805800  1
  H  H2  1  0.69773700  0.36471900  0.20878100  1
  H  H3  1  0.52103500  0.99441500  0.71132000  1
  H  H4  1  0.06990700  0.10120300  0.27591500  1
  H  H5  1  0.68099900  0.28408600  0.65441600  1
  H  H6  1  0.32360100  0.60944500  0.71974800  1
  H  H7  1  0.19773900  0.34503900  0.63751900  1
  H  H8  1  0.90253200  0.75449200  0.21859800  1
  H  H9  1  0.60097200  0.18881500  0.29238800  1
  H  H10  1  0.22998500  0.47756000  0.29508800  1
  H  H11  1  0.36041600  0.75557600  0.30843200  1
  H  H12  1  0.43198500  0.42207200  0.94010400  1
  H  H13  1  0.30440700  0.56347500  0.95071400  1
  H  H14  1  0.77417200  0.42375200  0.92174900  1
  H  H15  1  0.66464600  0.31713700  0.97624600  1
  H  H16  1  0.81596600  0.63881300  0.63483700  1
  H  H17  1  0.95193700  0.90695200  0.62344900  1
  Cl  Cl0  1  0.46920300  0.93289800  0.97928900  1
  O  O0  1  0.85917400  0.45928700  0.84641800  1
  O  O1  1  0.17786300  0.09379600  0.08507000  1
  O  O2  1  0.96591200  0.30183100  0.08419100  1
  O  O3  1  0.95560800  0.72056900  0.41274300  1
  O  O4  1  0.08234700  0.47597400  0.51266900  1
  O  O5  1  0.39405200  0.39129300  0.53186000  1
  O  O6  1  0.85612300  0.32555400  0.39732500  1
  O  O7  1  0.09016500  0.08741400  0.74967900  1
  O  O8  1  0.16500500  0.14241400  0.40983700  1
  O  O9  1  0.45903000  0.02858800  0.40166900  1
  O  O10  1  0.68137100  0.40795800  0.08328200  1
  O  O11  1  0.75571000  0.06688300  0.83199900  1
  O  O12  1  0.96094400  0.88719800  0.32659200  1
  O  O13  1  0.21874200  0.36405800  0.16492200  1
  O  O14  1  0.46913300  0.81598000  0.18192200  1
  O  O15  1  0.76811300  0.80513400  0.08699200  1
  O  O16  1  0.27941200  0.98287700  0.52593200  1
  O  O17  1  0.64856000  0.66963300  0.84461600  1
  O  O18  1  0.72473300  0.47445700  0.32760700  1
  O  O19  1  0.55603000  0.42922300  0.41720300  1
  O  O20  1  0.38015100  0.51092900  0.07899100  1
  O  O21  1  0.48492500  0.77226200  0.51721000  1
  O  O22  1  0.99429400  0.08975800  0.52725200  1
  O  O23  1  0.36270200  0.77458100  0.84235700  1
  O  O24  1  0.07856800  0.71196800  0.09891000  1
  O  O25  1  0.63035800  0.20586400  0.18739800  1
  O  O26  1  0.74588800  0.92370800  0.40372400  1
  O  O27  1  0.02148400  0.95171300  0.17222100  1
  O  O28  1  0.43528500  0.84081400  0.68774700  1
  O  O29  1  0.44699800  0.16776400  0.84040300  1
  O  O30  1  0.06644200  0.88254100  0.85421800  1
  O  O31  1  0.86581700  0.65427300  0.76608700  1
  O  O32  1  0.66469800  0.23538200  0.75785900  1
  O  O33  1  0.30413400  0.60796900  0.60214700  1
  O  O34  1  0.13516800  0.23191300  0.25276200  1
  O  O35  1  0.75402000  0.43741500  0.67737700  1
  O  O36  1  0.69559300  0.19645300  0.52031600  1
  O  O37  1  0.26462700  0.47320100  0.74206800  1
  O  O38  1  0.27496700  0.60901900  0.32489000  1
  O  O39  1  0.14040500  0.20398900  0.65716800  1
  O  O40  1  0.82362300  0.62364100  0.24206600  1
  O  O41  1  0.53638700  0.02289100  0.60339100  1
  O  O42  1  0.27762700  0.40985700  0.93362500  1
  O  O43  1  0.72527400  0.46101500  0.95785100  1
  O  O44  1  0.53632900  0.02687500  0.27371500  1
  O  O45  1  0.85121200  0.74621300  0.60587200  1
loop_
_geom_bond_atom_site_label_1
_geom_bond_atom_site_label_2
_geom_bond_distance
_geom_bond_site_symmetry_2
K0 O1 2.804003 1_666
K0 O43 2.871125 1_555
K0 O42 2.955586 1_665
K0 O30 3.063540 1_655
K0 O15 3.074336 1_556
K0 O2 3.329655 1_566
Ca0 O42 2.385496 1_555
Ca0 O7 2.435832 1_555
Ca0 O37 2.464052 1_555
Ca0 O23 2.468868 1_555
Ca0 O29 2.518211 1_555
Ca0 O11 2.549157 1_455
Ca0 O0 2.652323 1_455
Ca0 O17 2.711374 1_555
Ca0 O30 2.864294 1_545
Ca1 O38 2.302441 1_555
Ca1 O6 2.507407 1_455
Ca1 O9 2.522385 1_565
Ca1 O21 2.568755 1_555
Ca1 O3 2.596974 1_455
Ca1 O4 2.620448 1_555
Ca1 O19 2.637633 1_555
Ca1 O8 2.791659 1_555
Ca1 O26 2.818798 1_555
Ca2 O14 2.447489 1_555
Ca2 O25 2.492325 1_565
Ca2 O24 2.494293 1_555
Ca2 O15 2.527580 1_555
Ca2 O10 2.540945 1_565
Ca2 O1 2.632929 1_565
Ca2 Cl0 2.757516 1_554
Ca2 O20 2.776284 1_555
Ca2 O2 2.782778 1_565
Ca3 O45 2.308909 1_555
Ca3 O22 2.498262 1_565
Ca3 O5 2.515154 1_555
Ca3 O3 2.574160 1_555
Ca3 O21 2.598822 1_555
Ca3 O4 2.637373 1_655
Ca3 O19 2.638341 1_555
Ca3 O16 2.796588 1_655
Ca3 O36 2.805795 1_555
B0 O8 1.476542 1_665
B0 O3 1.485789 1_555
B0 O12 1.487333 1_555
B0 O26 1.488548 1_555
B1 O1 1.444274 1_565
B1 O24 1.487593 1_555
B1 O15 1.497787 1_455
B1 O27 1.506561 1_555
B2 O26 1.350399 1_545
B2 O6 1.366308 1_555
B2 O9 1.415216 1_555
B3 O20 1.354333 1_555
B3 O15 1.377206 1_555
B3 O10 1.396163 1_555
B4 O16 1.349672 1_545
B4 O5 1.366230 1_555
B4 O22 1.415674 1_455
B5 O17 1.355983 1_555
B5 O11 1.364204 1_565
B5 O23 1.410229 1_555
B6 O31 1.371185 1_555
B6 O32 1.377584 1_555
B6 O35 1.385393 1_555
B7 O30 1.365745 1_555
B7 O29 1.370091 1_565
B7 O23 1.394384 1_555
B8 O3 1.458071 1_555
B8 O18 1.460442 1_555
B8 O6 1.487298 1_555
B8 O19 1.519269 1_555
B9 O12 1.373630 1_555
B9 O40 1.377246 1_555
B9 O18 1.381744 1_555
B10 O41 1.374652 1_565
B10 O33 1.378391 1_555
B10 O28 1.379608 1_555
B11 O36 1.351410 1_555
B11 O4 1.386566 1_655
B11 O22 1.393362 1_555
B12 O13 1.369724 1_555
B12 O27 1.378928 1_545
B12 O34 1.385870 1_555
B13 O36 1.474115 1_565
B13 O21 1.484813 1_555
B13 O41 1.488378 1_565
B13 O16 1.488570 1_555
B14 O0 1.463771 1_555
B14 O30 1.477111 1_655
B14 O17 1.488938 1_555
B14 O31 1.514498 1_555
B15 O8 1.352047 1_555
B15 O19 1.386423 1_555
B15 O9 1.392596 1_555
B16 O7 1.364964 1_555
B16 O39 1.368707 1_555
B16 O37 1.380179 1_555
B17 O0 1.449497 1_555
B17 O11 1.483764 1_555
B17 O29 1.493645 1_555
B17 O32 1.501878 1_555
B18 O1 1.459044 1_555
B18 O20 1.468211 1_555
B18 O2 1.494664 1_455
B18 O13 1.509591 1_555
B19 O14 1.365128 1_545
B19 O44 1.371604 1_555
B19 O25 1.382389 1_555
B20 O21 1.456823 1_555
B20 O33 1.459415 1_555
B20 O5 1.488046 1_555
B20 O4 1.522404 1_555
B21 O2 1.356044 1_555
B21 O24 1.365923 1_655
B21 O10 1.411521 1_555
H0 O7 1.001538 1_665
H0 O31 1.655808 1_555
H1 O14 0.998933 1_555
H1 O13 1.680990 1_555
H2 O25 1.004639 1_555
H3 O28 1.001316 1_555
H3 O32 1.695982 1_565
H4 O34 0.993009 1_555
H4 O12 1.843502 1_445
H5 O35 0.991542 1_555
H5 O41 1.841219 1_555
H6 O37 1.007823 1_555
H7 O39 0.994448 1_555
H7 O33 1.836694 1_555
H8 O40 1.003974 1_555
H8 O27 1.700174 1_655
H9 O44 0.997869 1_555
H9 O18 1.774457 1_555
H10 O38 0.996377 1_555
H11 O38 0.982791 1_555
H12 O42 0.995634 1_555
H13 O42 0.992110 1_555
H14 O43 0.988712 1_555
H14 O0 1.920316 1_555
H15 O43 0.991028 1_555
H16 O45 0.996238 1_555
H17 O45 0.986977 1_555
Cl0 H13 2.172764 1_555
Cl0 H15 2.233717 1_565
Cl0 K0 3.288053 1_555
Cl0 K0 3.354196 1_455
