# generated using pymatgen
data_H6Os5Pt(CO)16
_symmetry_space_group_name_H-M   'P 1'
_cell_length_a   15.68952500
_cell_length_b   11.94416300
_cell_length_c   16.48673133
_cell_angle_alpha   70.24792165
_cell_angle_beta   90.00000000
_cell_angle_gamma   90.00000000
_symmetry_Int_Tables_number   1
_chemical_formula_structural   H6Os5Pt(CO)16
_chemical_formula_sum   'H24 Os20 Pt4 C64 O64'
_cell_volume   2907.80495614
_cell_formula_units_Z   4
loop_
 _symmetry_equiv_pos_site_id
 _symmetry_equiv_pos_as_xyz
  1  'x, y, z'
loop_
 _atom_site_type_symbol
 _atom_site_label
 _atom_site_symmetry_multiplicity
 _atom_site_fract_x
 _atom_site_fract_y
 _atom_site_fract_z
 _atom_site_occupancy
  H  H0  1  0.69983000  0.82378400  0.24906900  1
  H  H1  1  0.80017000  0.32378400  0.74906900  1
  H  H2  1  0.30017000  0.17621600  0.75093100  1
  H  H3  1  0.19983000  0.67621600  0.25093100  1
  H  H4  1  0.56050500  0.77715900  0.33560800  1
  H  H5  1  0.93949500  0.27715900  0.83560800  1
  H  H6  1  0.43949500  0.22284100  0.66439200  1
  H  H7  1  0.06050500  0.72284100  0.16439200  1
  H  H8  1  0.56174600  0.85930000  0.16377400  1
  H  H9  1  0.93825400  0.35930000  0.66377400  1
  H  H10  1  0.43825400  0.14070000  0.83622600  1
  H  H11  1  0.06174600  0.64070000  0.33622600  1
  H  H12  1  0.70494800  0.15388600  0.27709100  1
  H  H13  1  0.79505200  0.65388600  0.77709100  1
  H  H14  1  0.29505200  0.84611400  0.72290900  1
  H  H15  1  0.20494800  0.34611400  0.22290900  1
  H  H16  1  0.57575600  0.11529600  0.35349200  1
  H  H17  1  0.92424400  0.61529600  0.85349200  1
  H  H18  1  0.42424400  0.88470400  0.64650800  1
  H  H19  1  0.07575600  0.38470400  0.14650800  1
  H  H20  1  0.55136600  0.17356700  0.16555600  1
  H  H21  1  0.94863400  0.67356700  0.66555600  1
  H  H22  1  0.44863400  0.82643300  0.83444400  1
  H  H23  1  0.05136600  0.32643300  0.33444400  1
  Os  Os0  1  0.66134600  0.94553500  0.15555600  1
  Os  Os1  1  0.83865400  0.44553500  0.65555600  1
  Os  Os2  1  0.33865400  0.05446500  0.84444400  1
  Os  Os3  1  0.16134600  0.55446500  0.34444400  1
  Os  Os4  1  0.66095300  0.84573300  0.34609000  1
  Os  Os5  1  0.83904700  0.34573300  0.84609000  1
  Os  Os6  1  0.33904700  0.15426700  0.65391000  1
  Os  Os7  1  0.16095300  0.65426700  0.15391000  1
  Os  Os8  1  0.50290700  0.89449900  0.24827100  1
  Os  Os9  1  0.99709300  0.39449900  0.74827100  1
  Os  Os10  1  0.49709300  0.10550100  0.75172900  1
  Os  Os11  1  0.00290700  0.60550100  0.25172900  1
  Os  Os12  1  0.64872000  0.23662300  0.33377100  1
  Os  Os13  1  0.85128000  0.73662300  0.83377100  1
  Os  Os14  1  0.35128000  0.76337700  0.66622900  1
  Os  Os15  1  0.14872000  0.26337700  0.16622900  1
  Os  Os16  1  0.55022100  0.32060100  0.17356300  1
  Os  Os17  1  0.94977900  0.82060100  0.67356300  1
  Os  Os18  1  0.44977900  0.67939900  0.82643700  1
  Os  Os19  1  0.05022100  0.17939900  0.32643700  1
  Pt  Pt0  1  0.60861900  0.07294100  0.25709000  1
  Pt  Pt1  1  0.89138100  0.57294100  0.75709000  1
  Pt  Pt2  1  0.39138100  0.92705900  0.74291000  1
  Pt  Pt3  1  0.10861900  0.42705900  0.24291000  1
  C  C0  1  0.61928900  0.06426400  0.05446900  1
  C  C1  1  0.88071100  0.56426400  0.55446900  1
  C  C2  1  0.38071100  0.93573600  0.94553100  1
  C  C3  1  0.11928900  0.43573600  0.44553100  1
  C  C4  1  0.70609600  0.84656300  0.09482400  1
  C  C5  1  0.79390400  0.34656300  0.59482400  1
  C  C6  1  0.29390400  0.15343700  0.90517600  1
  C  C7  1  0.20609600  0.65343700  0.40517600  1
  C  C8  1  0.76751100  0.02776000  0.14593600  1
  C  C9  1  0.73248900  0.52776000  0.64593600  1
  C  C10  1  0.23248900  0.97224000  0.85406400  1
  C  C11  1  0.26751100  0.47224000  0.35406400  1
  C  C12  1  0.69326300  0.68183000  0.39689000  1
  C  C13  1  0.80673700  0.18183000  0.89689000  1
  C  C14  1  0.30673700  0.31817000  0.60311000  1
  C  C15  1  0.19326300  0.81817000  0.10311000  1
  C  C16  1  0.76869700  0.90957700  0.36194800  1
  C  C17  1  0.73130300  0.40957700  0.86194800  1
  C  C18  1  0.23130300  0.09042300  0.63805200  1
  C  C19  1  0.26869700  0.59042300  0.13805200  1
  C  C20  1  0.61540500  0.86301700  0.44904100  1
  C  C21  1  0.88459500  0.36301700  0.94904100  1
  C  C22  1  0.38459500  0.13698300  0.55095900  1
  C  C23  1  0.11540500  0.63698300  0.05095900  1
  C  C24  1  0.44121000  0.00559800  0.15720900  1
  C  C25  1  0.05879000  0.50559800  0.65720900  1
  C  C26  1  0.55879000  0.99440200  0.84279100  1
  C  C27  1  0.94121000  0.49440200  0.34279100  1
  C  C28  1  0.43870300  0.92671600  0.33699900  1
  C  C29  1  0.06129700  0.42671600  0.83699900  1
  C  C30  1  0.56129700  0.07328400  0.66300100  1
  C  C31  1  0.93870300  0.57328400  0.16300100  1
  C  C32  1  0.43491200  0.76154000  0.24891300  1
  C  C33  1  0.06508800  0.26154000  0.74891300  1
  C  C34  1  0.56508800  0.23846000  0.75108700  1
  C  C35  1  0.93491200  0.73846000  0.25108700  1
  C  C36  1  0.57812300  0.30974700  0.39671400  1
  C  C37  1  0.92187700  0.80974700  0.89671400  1
  C  C38  1  0.42187700  0.69025300  0.60328600  1
  C  C39  1  0.07812300  0.19025300  0.10328600  1
  C  C40  1  0.71495200  0.14806800  0.43064000  1
  C  C41  1  0.78504800  0.64806800  0.93064000  1
  C  C42  1  0.28504800  0.85193200  0.56936000  1
  C  C43  1  0.21495200  0.35193200  0.06936000  1
  C  C44  1  0.72168200  0.37283700  0.29378900  1
  C  C45  1  0.77831800  0.87283700  0.79378900  1
  C  C46  1  0.27831800  0.62716300  0.70621100  1
  C  C47  1  0.22168200  0.12716300  0.20621100  1
  C  C48  1  0.48756400  0.35290400  0.06795400  1
  C  C49  1  0.01243600  0.85290400  0.56795400  1
  C  C50  1  0.51243600  0.64709600  0.93204600  1
  C  C51  1  0.98756400  0.14709600  0.43204600  1
  C  C52  1  0.45110600  0.26687400  0.24878500  1
  C  C53  1  0.04889400  0.76687400  0.74878500  1
  C  C54  1  0.54889400  0.73312600  0.75121500  1
  C  C55  1  0.95110600  0.23312600  0.25121500  1
  C  C56  1  0.55331000  0.47510700  0.18700700  1
  C  C57  1  0.94669000  0.97510700  0.68700700  1
  C  C58  1  0.44669000  0.52489300  0.81299300  1
  C  C59  1  0.05331000  0.02489300  0.31299300  1
  C  C60  1  0.66231500  0.33527500  0.11912000  1
  C  C61  1  0.83768500  0.83527500  0.61912000  1
  C  C62  1  0.33768500  0.66472500  0.88088000  1
  C  C63  1  0.16231500  0.16472500  0.38088000  1
  O  O0  1  0.59350800  0.13727900  0.99308700  1
  O  O1  1  0.90649200  0.63727900  0.49308700  1
  O  O2  1  0.40649200  0.86272100  0.00691300  1
  O  O3  1  0.09350800  0.36272100  0.50691300  1
  O  O4  1  0.73765900  0.79024700  0.05792100  1
  O  O5  1  0.76234100  0.29024700  0.55792100  1
  O  O6  1  0.26234100  0.20975300  0.94207900  1
  O  O7  1  0.23765900  0.70975300  0.44207900  1
  O  O8  1  0.83118500  0.07942300  0.13804100  1
  O  O9  1  0.66881500  0.57942300  0.63804100  1
  O  O10  1  0.16881500  0.92057700  0.86195900  1
  O  O11  1  0.33118500  0.42057700  0.36195900  1
  O  O12  1  0.71337500  0.58276800  0.42760200  1
  O  O13  1  0.78662500  0.08276800  0.92760200  1
  O  O14  1  0.28662500  0.41723200  0.57239800  1
  O  O15  1  0.21337500  0.91723200  0.07239800  1
  O  O16  1  0.83413800  0.94757700  0.37273600  1
  O  O17  1  0.66586200  0.44757700  0.87273600  1
  O  O18  1  0.16586200  0.05242300  0.62726400  1
  O  O19  1  0.33413800  0.55242300  0.12726400  1
  O  O20  1  0.58570600  0.87488900  0.50992200  1
  O  O21  1  0.91429400  0.37488900  0.00992200  1
  O  O22  1  0.41429400  0.12511100  0.49007800  1
  O  O23  1  0.08570600  0.62511100  0.99007800  1
  O  O24  1  0.40556500  0.07388000  0.10004400  1
  O  O25  1  0.09443500  0.57388000  0.60004400  1
  O  O26  1  0.59443500  0.92612000  0.89995600  1
  O  O27  1  0.90556500  0.42612000  0.39995600  1
  O  O28  1  0.40088300  0.94559100  0.39123100  1
  O  O29  1  0.09911700  0.44559100  0.89123100  1
  O  O30  1  0.59911700  0.05440900  0.60876900  1
  O  O31  1  0.90088300  0.55440900  0.10876900  1
  O  O32  1  0.39198200  0.68177000  0.24987900  1
  O  O33  1  0.10801800  0.18177000  0.74987900  1
  O  O34  1  0.60801800  0.31823000  0.75012100  1
  O  O35  1  0.89198200  0.81823000  0.25012100  1
  O  O36  1  0.53624900  0.35225200  0.43697100  1
  O  O37  1  0.96375100  0.85225200  0.93697100  1
  O  O38  1  0.46375100  0.64774800  0.56302900  1
  O  O39  1  0.03624900  0.14774800  0.06302900  1
  O  O40  1  0.75687200  0.09495400  0.48898900  1
  O  O41  1  0.74312800  0.59495400  0.98898900  1
  O  O42  1  0.24312800  0.90504600  0.51101100  1
  O  O43  1  0.25687200  0.40504600  0.01101100  1
  O  O44  1  0.76332900  0.45874900  0.26851000  1
  O  O45  1  0.73667100  0.95874900  0.76851000  1
  O  O46  1  0.23667100  0.54125100  0.73149000  1
  O  O47  1  0.26332900  0.04125100  0.23149000  1
  O  O48  1  0.45051800  0.37054000  0.00380300  1
  O  O49  1  0.04948200  0.87054000  0.50380300  1
  O  O50  1  0.54948200  0.62946000  0.99619700  1
  O  O51  1  0.95051800  0.12946000  0.49619700  1
  O  O52  1  0.39174300  0.23197200  0.29137000  1
  O  O53  1  0.10825700  0.73197200  0.79137000  1
  O  O54  1  0.60825700  0.76802800  0.70863000  1
  O  O55  1  0.89174300  0.26802800  0.20863000  1
  O  O56  1  0.55515900  0.56826200  0.19459600  1
  O  O57  1  0.94484100  0.06826200  0.69459600  1
  O  O58  1  0.44484100  0.43173800  0.80540400  1
  O  O59  1  0.05515900  0.93173800  0.30540400  1
  O  O60  1  0.72770200  0.33844300  0.08593700  1
  O  O61  1  0.77229800  0.83844300  0.58593700  1
  O  O62  1  0.27229800  0.66155700  0.91406300  1
  O  O63  1  0.22770200  0.16155700  0.41406300  1
loop_
_geom_bond_atom_site_label_1
_geom_bond_atom_site_label_2
_geom_bond_distance
_geom_bond_site_symmetry_2
H0 Os4 1.811852 1_555
H0 Os0 1.827799 1_555
H0 H8 2.539262 1_555
H1 Os5 1.811852 1_555
H1 Os1 1.827799 1_555
H1 H9 2.539262 1_555
H2 Os6 1.811852 1_555
H2 Os2 1.827799 1_555
H3 Os7 1.811852 1_555
H3 Os3 1.827799 1_555
H4 Os4 1.811107 1_555
H4 Os8 1.868216 1_555
H5 Os5 1.811107 1_555
H5 Os9 1.868216 1_555
H6 Os6 1.811107 1_555
H6 Os10 1.868216 1_555
H7 Os7 1.811107 1_555
H7 Os11 1.868216 1_555
H8 Os8 1.834531 1_555
H8 Os0 1.851189 1_555
H9 Os9 1.834531 1_555
H9 Os1 1.851189 1_555
H10 Os10 1.834531 1_555
H10 Os2 1.851189 1_555
H10 H2 2.539262 1_555
H11 Os11 1.834531 1_555
H11 Os3 1.851189 1_555
H11 H3 2.539262 1_555
H12 Os12 1.803399 1_555
H12 Pt0 1.882328 1_555
H13 Os13 1.803399 1_555
H13 Pt1 1.882328 1_555
H14 Os14 1.803399 1_555
H14 Pt2 1.882328 1_555
H15 Os15 1.803399 1_555
H15 Pt3 1.882328 1_555
H16 Os12 1.788234 1_555
H16 Pt0 1.895067 1_555
H17 Os13 1.788234 1_555
H17 Pt1 1.895067 1_555
H18 Os14 1.788234 1_555
H18 Pt2 1.895067 1_555
H19 Os15 1.788234 1_555
H19 Pt3 1.895067 1_555
H20 Os16 1.805181 1_555
H20 Pt0 1.817383 1_555
H21 Os17 1.805181 1_555
H21 Pt1 1.817383 1_555
H22 Os18 1.805181 1_555
H22 Pt2 1.817383 1_555
H23 Os19 1.805181 1_555
H23 Pt3 1.817383 1_555
C0 O0 1.162659 1_554
C0 Os0 1.904353 1_545
C1 O1 1.162659 1_555
C1 Os1 1.904353 1_555
C2 O2 1.162659 1_556
C2 Os2 1.904353 1_565
C3 O3 1.162659 1_555
C3 Os3 1.904353 1_555
C4 O4 1.159508 1_555
C4 Os0 1.921711 1_555
C4 H0 2.466347 1_555
C4 H8 2.561542 1_555
C5 O5 1.159508 1_555
C5 Os1 1.921711 1_555
C5 H1 2.466347 1_555
C5 H9 2.561542 1_555
C6 O6 1.159508 1_555
C6 Os2 1.921711 1_555
C6 H2 2.466347 1_555
C6 H10 2.561542 1_555
C7 O7 1.159508 1_555
C7 Os3 1.921711 1_555
C7 H3 2.466347 1_555
C7 H11 2.561542 1_555
C8 O8 1.158215 1_555
C8 Os0 1.912824 1_545
C9 O9 1.158215 1_555
C9 Os1 1.912824 1_555
C10 O10 1.158215 1_555
C10 Os2 1.912824 1_565
C11 O11 1.158215 1_555
C11 Os3 1.912824 1_555
C12 O12 1.162327 1_555
C12 Os4 1.919046 1_555
C12 H4 2.424502 1_555
C12 H0 2.455988 1_555
C13 O13 1.162327 1_555
C13 Os5 1.919046 1_555
C13 H5 2.424502 1_555
C13 H1 2.455988 1_555
C14 O14 1.162327 1_555
C14 Os6 1.919046 1_555
C14 H6 2.424502 1_555
C14 H2 2.455988 1_555
C15 O15 1.162327 1_555
C15 Os7 1.919046 1_555
C15 H7 2.424502 1_555
C15 H3 2.455988 1_555
C16 O16 1.160342 1_555
C16 Os4 1.908465 1_555
C17 O17 1.160342 1_555
C17 Os5 1.908465 1_555
C18 O18 1.160342 1_555
C18 Os6 1.908465 1_555
C19 O19 1.160342 1_555
C19 Os7 1.908465 1_555
C20 O20 1.157973 1_555
C20 Os4 1.916001 1_555
C21 O21 1.157973 1_556
C21 Os5 1.916001 1_555
C22 O22 1.157973 1_555
C22 Os6 1.916001 1_555
C23 O23 1.157973 1_554
C23 Os7 1.916001 1_555
C24 O24 1.160444 1_555
C24 Os8 1.898764 1_545
C24 H8 2.552209 1_545
C25 O25 1.160444 1_555
C25 Os9 1.898764 1_455
C25 H9 2.552209 1_455
C26 O26 1.160444 1_555
C26 Os10 1.898764 1_565
C26 H10 2.552209 1_565
C27 O27 1.160444 1_555
C27 Os11 1.898764 1_655
C27 H11 2.552209 1_655
C28 O28 1.156977 1_555
C28 Os8 1.919152 1_555
C29 O29 1.156977 1_555
C29 Os9 1.919152 1_455
C30 O30 1.156977 1_555
C30 Os10 1.919152 1_555
C31 O31 1.156977 1_555
C31 Os11 1.919152 1_655
C32 O32 1.162527 1_555
C32 Os8 1.910195 1_555
C32 H4 2.478069 1_555
C32 H8 2.487139 1_555
C33 O33 1.162527 1_555
C33 Os9 1.910195 1_455
C33 H5 2.478069 1_455
C33 H9 2.487139 1_455
C34 O34 1.162527 1_555
C34 Os10 1.910195 1_555
C34 H6 2.478069 1_555
C34 H10 2.487139 1_555
C35 O35 1.162527 1_555
C35 Os11 1.910195 1_655
C35 H7 2.478069 1_655
C35 H11 2.487139 1_655
C36 O36 1.165173 1_555
C36 Os12 1.918115 1_555
C37 O37 1.165173 1_555
C37 Os13 1.918115 1_555
C38 O38 1.165173 1_555
C38 Os14 1.918115 1_555
C39 O39 1.165173 1_555
C39 Os15 1.918115 1_555
C40 O40 1.161018 1_555
C40 Os12 1.899321 1_555
C40 H12 2.513794 1_555
C41 O41 1.161018 1_555
C41 Os13 1.899321 1_555
C41 H13 2.513794 1_555
C42 O42 1.161018 1_555
C42 Os14 1.899321 1_555
C42 H14 2.513794 1_555
C43 O43 1.161018 1_555
C43 Os15 1.899321 1_555
C43 H15 2.513794 1_555
C44 O44 1.168150 1_555
C44 Os12 1.914960 1_555
C45 O45 1.168150 1_555
C45 Os13 1.914960 1_555
C46 O46 1.168150 1_555
C46 Os14 1.914960 1_555
C47 O47 1.168150 1_555
C47 Os15 1.914960 1_555
C48 O48 1.161992 1_555
C48 Os16 1.921666 1_555
C48 H20 2.418668 1_555
C49 O49 1.161992 1_555
C49 Os17 1.921666 1_455
C49 H21 2.418668 1_455
C50 O50 1.161992 1_555
C50 Os18 1.921666 1_555
C50 H22 2.418668 1_555
C51 O51 1.161992 1_555
C51 Os19 1.921666 1_655
C51 H23 2.418668 1_655
C52 O52 1.156006 1_555
C52 Os16 1.957075 1_555
C53 O53 1.156006 1_555
C53 Os17 1.957075 1_455
C54 O54 1.156006 1_555
C54 Os18 1.957075 1_555
C55 O55 1.156006 1_555
C55 Os19 1.957075 1_655
C56 O56 1.161292 1_555
C56 Os16 1.932256 1_555
C57 O57 1.161292 1_565
C57 Os17 1.932256 1_555
C58 O58 1.161292 1_555
C58 Os18 1.932256 1_555
C59 O59 1.161292 1_545
C59 Os19 1.932256 1_555
C60 O60 1.157233 1_555
C60 Os16 1.955270 1_555
C60 H20 2.519403 1_555
C61 O61 1.157233 1_555
C61 Os17 1.955270 1_555
C61 H21 2.519403 1_555
C62 O62 1.157233 1_555
C62 Os18 1.955270 1_555
C62 H22 2.519403 1_555
C63 O63 1.157233 1_555
C63 Os19 1.955270 1_555
C63 H23 2.519403 1_555
