# generated using pymatgen
data_NaMnP2H10NO10
_symmetry_space_group_name_H-M   'P 1'
_cell_length_a   9.66154777
_cell_length_b   9.66154777
_cell_length_c   5.62877475
_cell_angle_alpha   82.64433382
_cell_angle_beta   82.64433382
_cell_angle_gamma   116.41708882
_symmetry_Int_Tables_number   1
_chemical_formula_structural   NaMnP2H10NO10
_chemical_formula_sum   'Na2 Mn2 P4 H20 N2 O20'
_cell_volume   456.44964048
_cell_formula_units_Z   2
loop_
 _symmetry_equiv_pos_site_id
 _symmetry_equiv_pos_as_xyz
  1  'x, y, z'
loop_
 _atom_site_type_symbol
 _atom_site_label
 _atom_site_symmetry_multiplicity
 _atom_site_fract_x
 _atom_site_fract_y
 _atom_site_fract_z
 _atom_site_occupancy
  Na  Na0  1  0.22079000  0.09867900  0.65144400  1
  Na  Na1  1  0.09867900  0.22079000  0.15144400  1
  Mn  Mn0  1  0.45041000  0.94027700  0.88009600  1
  Mn  Mn1  1  0.94027700  0.45041000  0.38009600  1
  P  P0  1  0.71970200  0.29346000  0.96000900  1
  P  P1  1  0.86064900  0.11313000  0.75031500  1
  P  P2  1  0.29346000  0.71970200  0.46000900  1
  P  P3  1  0.11313000  0.86064900  0.25031500  1
  H  H0  1  0.92357500  0.84695600  0.79751800  1
  H  H1  1  0.84695600  0.92357500  0.29751800  1
  H  H2  1  0.89416000  0.67951200  0.98427000  1
  H  H3  1  0.90105900  0.68631800  0.67830600  1
  H  H4  1  0.67951200  0.89416000  0.48427000  1
  H  H5  1  0.74480700  0.68320800  0.85456000  1
  H  H6  1  0.68631800  0.90105900  0.17830600  1
  H  H7  1  0.68320800  0.74480700  0.35456000  1
  H  H8  1  0.48388000  0.65684000  0.78115500  1
  H  H9  1  0.65684000  0.48388000  0.28115500  1
  H  H10  1  0.61043600  0.48445400  0.55183600  1
  H  H11  1  0.48445400  0.61043600  0.05183600  1
  H  H12  1  0.40914200  0.38951800  0.90754900  1
  H  H13  1  0.57448400  0.22516600  0.57001800  1
  H  H14  1  0.38951800  0.40914200  0.40754900  1
  H  H15  1  0.12203900  0.50747200  0.87484400  1
  H  H16  1  0.39133400  0.22005400  0.99549200  1
  H  H17  1  0.22516600  0.57448400  0.07001800  1
  H  H18  1  0.50747200  0.12203900  0.37484400  1
  H  H19  1  0.22005400  0.39133400  0.49549200  1
  N  N0  1  0.86664600  0.72369200  0.82836400  1
  N  N1  1  0.72369200  0.86664600  0.32836400  1
  O  O0  1  0.69220700  0.97426000  0.78708100  1
  O  O1  1  0.97426000  0.69220700  0.28708100  1
  O  O2  1  0.21872100  0.92004100  0.99325300  1
  O  O3  1  0.52380300  0.59872500  0.88948600  1
  O  O4  1  0.40217300  0.76689600  0.64351300  1
  O  O5  1  0.84613500  0.22469400  0.94350300  1
  O  O6  1  0.73792000  0.38134000  0.69981000  1
  O  O7  1  0.92004100  0.21872100  0.49325300  1
  O  O8  1  0.97373800  0.06001000  0.84138600  1
  O  O9  1  0.59872500  0.52380300  0.38948600  1
  O  O10  1  0.76689600  0.40217300  0.14351300  1
  O  O11  1  0.22469400  0.84613500  0.44350300  1
  O  O12  1  0.38134000  0.73792000  0.19981000  1
  O  O13  1  0.06001000  0.97373800  0.34138600  1
  O  O14  1  0.34131700  0.27597200  0.91401800  1
  O  O15  1  0.15070400  0.55345700  0.55619400  1
  O  O16  1  0.48498300  0.12739600  0.55086700  1
  O  O17  1  0.27597200  0.34131700  0.41401800  1
  O  O18  1  0.55345700  0.15070400  0.05619400  1
  O  O19  1  0.12739600  0.48498300  0.05086700  1
loop_
_geom_bond_atom_site_label_1
_geom_bond_atom_site_label_2
_geom_bond_distance
_geom_bond_site_symmetry_2
Na0 O8 2.330397 1_455
Na0 O17 2.338602 1_555
Na0 O14 2.405949 1_555
Na0 O2 2.406249 1_545
Na0 O16 2.423306 1_555
Na0 O13 2.545812 1_545
Na0 O11 2.850731 1_545
Na1 O13 2.330397 1_545
Na1 O14 2.338602 1_554
Na1 O17 2.405949 1_555
Na1 O7 2.406249 1_455
Na1 O19 2.423306 1_555
Na1 O8 2.545812 1_454
Na1 O5 2.850731 1_454
Mn0 O2 2.160624 1_555
Mn0 O0 2.190830 1_555
Mn0 O4 2.198193 1_555
Mn0 O18 2.252700 1_566
Mn0 O12 2.266476 1_556
Mn0 O16 2.293563 1_565
Mn1 O7 2.160624 1_555
Mn1 O1 2.190830 1_555
Mn1 O10 2.198193 1_555
Mn1 O15 2.252700 1_655
Mn1 O6 2.266476 1_555
Mn1 O19 2.293563 1_655
H0 N0 1.044372 1_555
H0 O8 1.950922 1_565
H0 Na0 2.739696 1_665
H1 N1 1.044372 1_555
H1 O13 1.950922 1_655
H1 Na1 2.739696 1_665
H2 N0 1.042956 1_555
H2 O1 1.956001 1_556
H3 N0 1.033134 1_555
H4 N1 1.042956 1_555
H4 O0 1.956001 1_555
H5 N0 1.044757 1_555
H6 N1 1.033134 1_555
H7 N1 1.044757 1_555
H8 O3 1.000562 1_555
H8 O4 1.745456 1_555
H9 O9 1.000562 1_555
H9 O10 1.745456 1_555
H10 O9 0.983979 1_555
H10 O6 2.084554 1_555
H11 O3 0.983979 1_554
H11 O12 2.084554 1_555
H12 O14 0.989046 1_555
H13 O16 0.987307 1_555
H13 O6 1.939445 1_555
H14 O17 0.989046 1_555
H15 O19 0.999787 1_556
H15 O15 1.746540 1_555
H16 O14 0.980469 1_555
H16 O18 2.007844 1_556
H17 O19 0.987307 1_555
H17 O12 1.939445 1_555
H18 O16 0.999787 1_555
H18 O18 1.746540 1_555
H19 O17 0.980469 1_555
H19 O15 2.007844 1_555
O0 P1 1.546360 1_565
O1 P3 1.546360 1_655
O2 P3 1.533691 1_556
O4 P2 1.533051 1_555
O5 P0 1.628215 1_555
O5 P1 1.661182 1_555
O6 P0 1.542574 1_555
O7 P1 1.533691 1_555
O8 P1 1.514923 1_555
O10 P0 1.533051 1_554
O11 P2 1.628215 1_555
O11 P3 1.661182 1_555
O12 P2 1.542574 1_555
O13 P3 1.514923 1_555
O15 P2 1.546023 1_555
O18 P0 1.546023 1_554
