# generated using pymatgen
data_Li2TiCuO4
_symmetry_space_group_name_H-M   'P 1'
_cell_length_a   6.16821395
_cell_length_b   6.16821395
_cell_length_c   6.16821395
_cell_angle_alpha   124.66524979
_cell_angle_beta   124.03536728
_cell_angle_gamma   82.61792618
_symmetry_Int_Tables_number   1
_chemical_formula_structural   Li2TiCuO4
_chemical_formula_sum   'Li4 Ti2 Cu2 O8'
_cell_volume   153.62517823
_cell_formula_units_Z   2
loop_
 _symmetry_equiv_pos_site_id
 _symmetry_equiv_pos_as_xyz
  1  'x, y, z'
loop_
 _atom_site_type_symbol
 _atom_site_label
 _atom_site_symmetry_multiplicity
 _atom_site_fract_x
 _atom_site_fract_y
 _atom_site_fract_z
 _atom_site_occupancy
  Li  Li0  1  0.50000000  0.00000000  0.00000000  1
  Li  Li1  1  0.00000000  0.50000000  0.50000000  1
  Li  Li2  1  0.50000000  0.50000000  0.50000000  1
  Li  Li3  1  0.50000000  0.50000000  0.00000000  1
  Ti  Ti0  1  0.50000000  0.00000000  0.50000000  1
  Ti  Ti1  1  0.00000000  0.00000000  0.00000000  1
  Cu  Cu0  1  0.00000000  0.00000000  0.50000000  1
  Cu  Cu1  1  0.00000000  0.50000000  0.00000000  1
  O  O0  1  0.79966400  0.78230000  0.01736400  1
  O  O1  1  0.26688900  0.78124100  0.01435200  1
  O  O2  1  0.26493700  0.78230000  0.48263600  1
  O  O3  1  0.26688900  0.25253700  0.48564800  1
  O  O4  1  0.73311100  0.74746300  0.51435200  1
  O  O5  1  0.73506300  0.21770000  0.51736400  1
  O  O6  1  0.73311100  0.21875900  0.98564800  1
  O  O7  1  0.20033600  0.21770000  0.98263600  1
loop_
_geom_bond_atom_site_label_1
_geom_bond_atom_site_label_2
_geom_bond_distance
_geom_bond_site_symmetry_2
Li0 O0 2.129641 1_545
Li0 O7 2.129641 1_554
Li0 O5 2.129641 1_555
Li0 O2 2.129641 1_544
Li0 O6 2.161720 1_554
Li0 O1 2.161720 1_545
Li1 O1 2.100362 1_556
Li1 O4 2.100362 1_455
Li1 O3 2.100362 1_555
Li1 O6 2.100362 1_454
Li1 O5 2.617908 1_455
Li1 O2 2.617908 1_555
Li2 O5 2.129637 1_555
Li2 O2 2.129637 1_555
Li2 O0 2.129641 1_556
Li2 O7 2.129641 1_554
Li2 O3 2.161720 1_555
Li2 O4 2.161720 1_555
Li3 O4 2.100362 1_555
Li3 O1 2.100362 1_555
Li3 O6 2.100362 1_554
Li3 O3 2.100362 1_554
Li3 O0 2.617903 1_555
Li3 O7 2.617903 1_554
Cu0 O7 1.988369 1_555
Cu0 O0 1.988369 1_445
Cu0 O5 1.988373 1_455
Cu0 O2 1.988373 1_545
Cu0 O4 2.474531 1_445
Cu0 O3 2.474531 1_555
Cu1 O7 1.988369 1_554
Cu1 O0 1.988369 1_455
Cu1 O2 1.988369 1_555
Cu1 O5 1.988369 1_454
Cu1 O1 2.474531 1_555
Cu1 O6 2.474531 1_454
O0 Ti1 2.019850 1_665
O1 Ti0 1.985091 1_565
O1 Ti1 1.985091 1_565
O2 Ti0 2.019845 1_565
O3 Ti1 1.985091 1_555
O3 Ti0 1.985091 1_555
O4 Ti0 1.985091 1_565
O4 Ti1 1.985091 1_666
O5 Ti0 2.019845 1_555
O6 Ti1 1.985091 1_656
O6 Ti0 1.985091 1_555
O7 Ti1 2.019850 1_556
