# generated using pymatgen
data_CeTh2O6
_symmetry_space_group_name_H-M   'P 1'
_cell_length_a   3.92794669
_cell_length_b   6.79434554
_cell_length_c   5.54864524
_cell_angle_alpha   65.88007615
_cell_angle_beta   89.99078314
_cell_angle_gamma   73.19435705
_symmetry_Int_Tables_number   1
_chemical_formula_structural   CeTh2O6
_chemical_formula_sum   'Ce1 Th2 O6'
_cell_volume   128.19521106
_cell_formula_units_Z   1
loop_
 _symmetry_equiv_pos_site_id
 _symmetry_equiv_pos_as_xyz
  1  'x, y, z'
loop_
 _atom_site_type_symbol
 _atom_site_label
 _atom_site_symmetry_multiplicity
 _atom_site_fract_x
 _atom_site_fract_y
 _atom_site_fract_z
 _atom_site_occupancy
  Ce  Ce0  1  0.32940867  0.33353051  0.33365081  1
  Th  Th0  1  0.66370525  0.66472662  0.66805866  1
  Th  Th1  1  0.99494979  0.00231937  0.99911609  1
  O  O0  1  0.16454727  0.66296155  0.92187569  1
  O  O1  1  0.82959047  0.33339078  0.57901951  1
  O  O2  1  0.16489052  0.66252194  0.41748088  1
  O  O3  1  0.49406219  0.00437858  0.74506180  1
  O  O4  1  0.82904157  0.33365780  0.08824216  1
  O  O5  1  0.49386428  0.00421487  0.24975639  1
loop_
_geom_bond_atom_site_label_1
_geom_bond_atom_site_label_2
_geom_bond_distance
_geom_bond_site_symmetry_2
Ce0 O3 2.371161 1_555
Ce0 O0 2.373221 1_554
Ce0 O2 2.375886 1_555
Ce0 O5 2.378169 1_555
Ce0 O4 2.388488 1_555
Ce0 O1 2.388961 1_455
Ce0 O1 2.390043 1_555
Ce0 O4 2.390808 1_455
O0 Th0 2.413852 1_555
O0 Th0 2.413961 1_455
O0 Th1 2.421391 1_465
O0 O2 2.748718 1_556
O0 O4 2.758002 1_556
O0 O4 2.758882 1_456
O0 O2 2.799929 1_555
O0 O3 2.808503 1_465
O0 O3 2.809724 1_565
O1 Th1 2.405296 1_555
O1 Th0 2.407753 1_555
O1 O4 2.722409 1_555
O1 O3 2.757139 1_655
O1 O3 2.757331 1_555
O1 O2 2.757397 1_655
O1 O2 2.758143 1_555
O1 O4 2.826238 1_556
O2 Th0 2.409801 1_555
O2 Th0 2.409966 1_455
O2 Th1 2.427671 1_464
O2 O5 2.809643 1_565
O2 O5 2.810625 1_465
O3 Th1 2.413935 1_555
O3 Th1 2.414475 1_455
O3 Th0 2.422534 1_545
O3 O5 2.748729 1_555
O3 O5 2.799917 1_556
O4 Th0 2.405571 1_554
O4 Th1 2.408053 1_554
O4 O5 2.758784 1_555
O4 O5 2.759344 1_655
O5 Th1 2.409320 1_454
O5 Th1 2.409836 1_554
O5 Th0 2.426465 1_545
