# generated using pymatgen
data_LiMn2O3F
_symmetry_space_group_name_H-M   'P 1'
_cell_length_a   8.00405228
_cell_length_b   8.00405228
_cell_length_c   6.02308040
_cell_angle_alpha   68.21541099
_cell_angle_beta   68.21541099
_cell_angle_gamma   63.91531451
_symmetry_Int_Tables_number   1
_chemical_formula_structural   LiMn2O3F
_chemical_formula_sum   'Li4 Mn8 O12 F4'
_cell_volume   311.65259680
_cell_formula_units_Z   4
loop_
 _symmetry_equiv_pos_site_id
 _symmetry_equiv_pos_as_xyz
  1  'x, y, z'
loop_
 _atom_site_type_symbol
 _atom_site_label
 _atom_site_symmetry_multiplicity
 _atom_site_fract_x
 _atom_site_fract_y
 _atom_site_fract_z
 _atom_site_occupancy
  Li  Li0  1  0.01368100  0.24378100  0.10069800  1
  Li  Li1  1  0.73681400  0.00540600  0.39031000  1
  Li  Li2  1  0.24378100  0.01368100  0.60069800  1
  Li  Li3  1  0.00540600  0.73681400  0.89031000  1
  Mn  Mn0  1  0.76445500  0.22295800  0.76344400  1
  Mn  Mn1  1  0.01003700  0.49044200  0.51269200  1
  Mn  Mn2  1  0.49044200  0.01003700  0.01269200  1
  Mn  Mn3  1  0.37801600  0.37644400  0.13659300  1
  Mn  Mn4  1  0.61778800  0.63790000  0.36856000  1
  Mn  Mn5  1  0.37644400  0.37801600  0.63659300  1
  Mn  Mn6  1  0.63790000  0.61778800  0.86856000  1
  Mn  Mn7  1  0.22295800  0.76445500  0.26344400  1
  O  O0  1  0.60875000  0.13749000  0.67379000  1
  O  O1  1  0.61136600  0.15902600  0.11256800  1
  O  O2  1  0.87507700  0.36548600  0.83133600  1
  O  O3  1  0.52126900  0.49891600  0.70954100  1
  O  O4  1  0.75862900  0.70870300  0.52195000  1
  O  O5  1  0.27723700  0.25445500  0.01442500  1
  O  O6  1  0.70870300  0.75862900  0.02195000  1
  O  O7  1  0.25445500  0.27723700  0.51442500  1
  O  O8  1  0.49891600  0.52126900  0.20954100  1
  O  O9  1  0.13749000  0.60875000  0.17379000  1
  O  O10  1  0.36548600  0.87507700  0.33133600  1
  O  O11  1  0.15902600  0.61136600  0.61256800  1
  F  F0  1  0.98996300  0.00182900  0.24046100  1
  F  F1  1  0.86814900  0.36593700  0.37362800  1
  F  F2  1  0.36593700  0.86814900  0.87362800  1
  F  F3  1  0.00182900  0.98996300  0.74046100  1
loop_
_geom_bond_atom_site_label_1
_geom_bond_atom_site_label_2
_geom_bond_distance
_geom_bond_site_symmetry_2
Li0 O2 2.006079 1_454
Li0 O5 2.009800 1_555
Li1 O1 1.988176 1_555
Li1 O0 2.042417 1_555
Li1 O4 2.153939 1_545
Li2 O10 2.006079 1_545
Li2 O7 2.009800 1_555
Li3 O11 1.988176 1_555
Li3 O9 2.042417 1_556
Li3 O6 2.153939 1_456
Mn0 O2 1.938010 1_555
Mn0 O0 1.958622 1_555
Mn0 O1 2.006322 1_556
Mn0 O3 2.220100 1_555
Mn1 O7 1.950790 1_555
Mn1 O2 1.958868 1_455
Mn1 O9 1.993302 1_555
Mn1 O4 2.000471 1_455
Mn1 O11 2.168040 1_555
Mn2 O5 1.950790 1_555
Mn2 O10 1.958868 1_545
Mn2 O0 1.993302 1_554
Mn2 O6 2.000471 1_545
Mn2 O1 2.168040 1_555
Mn3 O1 1.914626 1_555
Mn3 O5 1.952416 1_555
Mn3 O9 2.013693 1_555
Mn3 O8 2.037952 1_555
Mn3 O7 2.113368 1_555
Mn3 O3 2.412380 1_554
Mn4 O6 1.953222 1_555
Mn4 O3 1.983582 1_555
Mn4 O4 2.041806 1_555
Mn4 O10 2.093101 1_555
Mn4 O8 2.194357 1_555
Mn5 O11 1.914626 1_555
Mn5 O7 1.952416 1_555
Mn5 O0 2.013693 1_555
Mn5 O3 2.037952 1_555
Mn5 O5 2.113368 1_556
Mn5 O8 2.412380 1_555
Mn6 O4 1.953222 1_555
Mn6 O8 1.983582 1_556
Mn6 O6 2.041806 1_556
Mn6 O2 2.093101 1_555
Mn6 O3 2.194357 1_555
Mn7 O10 1.938010 1_555
Mn7 O9 1.958622 1_555
Mn7 O11 2.006322 1_555
Mn7 O8 2.220100 1_555
F0 Li0 1.868087 1_655
F0 Li1 1.879299 1_555
F0 Mn7 1.996833 1_645
F1 Li0 1.945592 1_655
F1 Mn0 2.214875 1_555
F1 Mn4 2.217001 1_555
F1 Mn1 2.303320 1_655
F2 Li2 1.945592 1_565
F2 Mn7 2.214875 1_556
F2 Mn6 2.217001 1_555
F2 Mn2 2.303320 1_566
F3 Li2 1.868087 1_565
F3 Li3 1.879299 1_555
F3 Mn0 1.996833 1_465
