# generated using pymatgen
data_Li2Cr(Si2O5)2
_symmetry_space_group_name_H-M   'P 1'
_cell_length_a   6.93969100
_cell_length_b   7.61031821
_cell_length_c   9.70641722
_cell_angle_alpha   100.53401459
_cell_angle_beta   102.08096464
_cell_angle_gamma   116.61644409
_symmetry_Int_Tables_number   1
_chemical_formula_structural   Li2Cr(Si2O5)2
_chemical_formula_sum   'Li4 Cr2 Si8 O20'
_cell_volume   425.13186699
_cell_formula_units_Z   2
loop_
 _symmetry_equiv_pos_site_id
 _symmetry_equiv_pos_as_xyz
  1  'x, y, z'
loop_
 _atom_site_type_symbol
 _atom_site_label
 _atom_site_symmetry_multiplicity
 _atom_site_fract_x
 _atom_site_fract_y
 _atom_site_fract_z
 _atom_site_occupancy
  Li  Li0  1  0.38214600  0.25104000  0.05189700  1
  Li  Li1  1  0.22291800  0.68610100  0.57121800  1
  Li  Li2  1  0.77708200  0.31389900  0.42878200  1
  Li  Li3  1  0.61785400  0.74896000  0.94810300  1
  Cr  Cr0  1  0.23826300  0.28625200  0.42901900  1
  Cr  Cr1  1  0.76173700  0.71374800  0.57098100  1
  Si  Si0  1  0.24238700  0.94810100  0.18427200  1
  Si  Si1  1  0.39694800  0.65004400  0.25911100  1
  Si  Si2  1  0.80696500  0.61156200  0.23844900  1
  Si  Si3  1  0.90234900  0.27905500  0.14624600  1
  Si  Si4  1  0.09765100  0.72094500  0.85375400  1
  Si  Si5  1  0.19303500  0.38843800  0.76155100  1
  Si  Si6  1  0.60305200  0.34995600  0.74088900  1
  Si  Si7  1  0.75761300  0.05189900  0.81572800  1
  O  O0  1  0.21319800  0.92305000  0.00500700  1
  O  O1  1  0.14764400  0.45783400  0.14369400  1
  O  O2  1  0.41681800  0.87111300  0.25153300  1
  O  O3  1  0.57277100  0.62129800  0.17715400  1
  O  O4  1  0.99215000  0.79704900  0.19413700  1
  O  O5  1  0.73292400  0.38074100  0.12659900  1
  O  O6  1  0.44832800  0.64594300  0.42765700  1
  O  O7  1  0.34097800  0.19001000  0.25787400  1
  O  O8  1  0.07555500  0.78119700  0.70465800  1
  O  O9  1  0.11810400  0.38132400  0.59151200  1
  O  O10  1  0.88189600  0.61867600  0.40848800  1
  O  O11  1  0.92444500  0.21880300  0.29534200  1
  O  O12  1  0.65902200  0.80999000  0.74212600  1
  O  O13  1  0.55167200  0.35405700  0.57234300  1
  O  O14  1  0.26707600  0.61925900  0.87340100  1
  O  O15  1  0.00785000  0.20295100  0.80586300  1
  O  O16  1  0.42722900  0.37870200  0.82284600  1
  O  O17  1  0.58318200  0.12888700  0.74846700  1
  O  O18  1  0.85235600  0.54216600  0.85630600  1
  O  O19  1  0.78680200  0.07695000  0.99499300  1
loop_
_geom_bond_atom_site_label_1
_geom_bond_atom_site_label_2
_geom_bond_distance
_geom_bond_site_symmetry_2
Li0 O5 2.066956 1_555
Li0 O0 2.133376 1_545
Li0 O7 2.180426 1_555
Li0 O3 2.429439 1_555
Li0 O16 2.606392 1_554
Li0 O1 2.882373 1_555
Li1 O8 2.030283 1_555
Li1 O9 2.159410 1_555
Li1 O10 2.325891 1_455
Li1 O6 2.380582 1_555
Li1 O12 2.751360 1_555
Li2 O11 2.030283 1_555
Li2 O10 2.159410 1_555
Li2 O9 2.325891 1_655
Li2 O13 2.380582 1_555
Li2 O7 2.751360 1_555
Li3 O14 2.066956 1_555
Li3 O19 2.133376 1_565
Li3 O12 2.180426 1_555
Li3 O16 2.429439 1_555
Li3 O3 2.606392 1_556
Li3 O18 2.882373 1_555
Cr0 O11 2.064428 1_455
Cr0 O7 2.079120 1_555
Cr0 O9 2.092924 1_555
Cr0 O13 2.097003 1_555
Cr0 O6 2.462553 1_555
Cr1 O8 2.064428 1_655
Cr1 O12 2.079120 1_555
Cr1 O10 2.092924 1_555
Cr1 O6 2.097003 1_555
Cr1 O13 2.462553 1_555
O0 Si4 1.655460 1_554
O0 Si0 1.673804 1_555
O1 Si3 1.644445 1_455
O1 Si1 1.646168 1_555
O2 Si0 1.636878 1_555
O2 Si1 1.642113 1_555
O3 Si2 1.649277 1_555
O3 Si1 1.658711 1_555
O4 Si2 1.630055 1_555
O4 Si0 1.633228 1_655
O5 Si2 1.669980 1_555
O5 Si3 1.671232 1_555
O6 Si1 1.609037 1_555
O7 Si0 1.598016 1_545
O8 Si4 1.594010 1_555
O9 Si5 1.606310 1_555
O10 Si2 1.606310 1_555
O11 Si3 1.594010 1_555
O12 Si7 1.598016 1_565
O13 Si6 1.609037 1_555
O14 Si5 1.669980 1_555
O14 Si4 1.671232 1_555
O15 Si5 1.630055 1_555
O15 Si7 1.633228 1_455
O16 Si5 1.649277 1_555
O16 Si6 1.658711 1_555
O17 Si7 1.636878 1_555
O17 Si6 1.642113 1_555
O18 Si4 1.644445 1_655
O18 Si6 1.646168 1_555
O19 Si3 1.655460 1_556
O19 Si7 1.673804 1_555
