# generated using pymatgen
data_Li7Ni(O2F)2
_symmetry_space_group_name_H-M   'P 1'
_cell_length_a   5.46486627
_cell_length_b   9.45529042
_cell_length_c   5.71629681
_cell_angle_alpha   91.23757756
_cell_angle_beta   67.24321133
_cell_angle_gamma   78.22082278
_symmetry_Int_Tables_number   1
_chemical_formula_structural   Li7Ni(O2F)2
_chemical_formula_sum   'Li14 Ni2 O8 F4'
_cell_volume   264.98323000
_cell_formula_units_Z   2
loop_
 _symmetry_equiv_pos_site_id
 _symmetry_equiv_pos_as_xyz
  1  'x, y, z'
loop_
 _atom_site_type_symbol
 _atom_site_label
 _atom_site_symmetry_multiplicity
 _atom_site_fract_x
 _atom_site_fract_y
 _atom_site_fract_z
 _atom_site_occupancy
  Li  Li0  1  0.88203500  0.13723300  0.46259500  1
  Li  Li1  1  0.88202400  0.63729300  0.96257200  1
  Li  Li2  1  0.48245200  0.02629500  0.72057100  1
  Li  Li3  1  0.48234200  0.52629800  0.22056200  1
  Li  Li4  1  0.80118400  0.24226100  0.87979000  1
  Li  Li5  1  0.80111200  0.74224900  0.37984200  1
  Li  Li6  1  0.36243100  0.15934100  0.12922000  1
  Li  Li7  1  0.36241900  0.65930800  0.62919800  1
  Li  Li8  1  0.23853300  0.27021100  0.62481700  1
  Li  Li9  1  0.23849000  0.77022600  0.12486200  1
  Li  Li10  1  0.54076200  0.43424000  0.72336800  1
  Li  Li11  1  0.54078600  0.93428700  0.22350500  1
  Li  Li12  1  0.05722700  0.38650300  0.08052400  1
  Li  Li13  1  0.05718300  0.88647400  0.58057500  1
  Ni  Ni0  1  0.99398100  0.50739100  0.51547300  1
  Ni  Ni1  1  0.99418300  0.00737500  0.01547300  1
  O  O0  1  0.76772600  0.05040700  0.82478800  1
  O  O1  1  0.76750600  0.55040900  0.32491100  1
  O  O2  1  0.91990400  0.32576400  0.55104100  1
  O  O3  1  0.91989100  0.82577600  0.05112300  1
  O  O4  1  0.12314800  0.17464700  0.93997100  1
  O  O5  1  0.12301200  0.67466900  0.44002500  1
  O  O6  1  0.18188100  0.47663400  0.73439100  1
  O  O7  1  0.18204600  0.97663100  0.23433400  1
  F  F0  1  0.54459900  0.12493800  0.40819500  1
  F  F1  1  0.54455400  0.62498000  0.90822400  1
  F  F2  1  0.44334800  0.35539200  0.06826400  1
  F  F3  1  0.44328800  0.85537000  0.56833800  1
loop_
_geom_bond_atom_site_label_1
_geom_bond_atom_site_label_2
_geom_bond_distance
_geom_bond_site_symmetry_2
Li0 O2 1.915410 1_555
Li0 O7 1.984796 1_645
Li0 O0 2.152441 1_555
Li0 Li4 2.402519 1_555
Li0 Li13 2.575758 1_645
Li0 Li6 2.634056 1_655
Li1 O3 1.915147 1_556
Li1 O6 1.984614 1_655
Li1 O1 2.153405 1_556
Li1 Li5 2.402574 1_556
Li1 Li12 2.576024 1_656
Li1 Li7 2.633788 1_655
Li2 O0 1.922256 1_555
Li2 O4 2.071316 1_555
Li2 Li6 2.412528 1_556
Li3 O1 1.922148 1_555
Li3 O5 2.071563 1_555
Li3 Li7 2.412426 1_555
Li4 O0 1.891631 1_555
Li4 O4 1.908241 1_655
Li4 O2 1.976309 1_555
Li4 Li8 2.342232 1_655
Li5 O1 1.891716 1_555
Li5 O5 1.907876 1_655
Li5 O3 1.976290 1_555
Li5 Li9 2.342453 1_655
Li6 O4 1.981185 1_554
Li6 O7 2.144579 1_545
Li6 O0 2.237013 1_554
Li7 O5 1.981391 1_555
Li7 O6 2.144757 1_555
Li7 O1 2.235937 1_555
Li8 O2 1.920942 1_455
Li8 O6 1.961661 1_555
Li8 O4 1.970695 1_555
Li9 O3 1.920664 1_455
Li9 O7 1.961553 1_555
Li9 O5 1.970731 1_555
Li10 O6 1.895634 1_555
Li10 O2 1.955777 1_555
Li10 Li7 2.318827 1_555
Li10 O1 2.531824 1_555
Li11 O7 1.895293 1_555
Li11 O3 1.955748 1_555
Li11 Li6 2.319010 1_565
Li11 O0 2.532884 1_564
Li12 O1 2.013377 1_455
Li12 O4 2.049360 1_554
Li12 O6 2.091001 1_554
Li12 Ni0 2.580461 1_455
Li12 O2 2.609250 1_455
Li12 Li4 2.662384 1_454
Li13 O0 2.012638 1_465
Li13 O5 2.048993 1_555
Li13 O7 2.091684 1_555
Li13 Ni1 2.580689 1_466
Li13 O3 2.609308 1_456
Li13 Li5 2.662404 1_455
Ni0 O2 1.841116 1_555
Ni0 O5 1.853219 1_655
Ni0 O6 1.895500 1_655
Ni0 O1 1.934024 1_555
Ni1 O3 1.841310 1_545
Ni1 O4 1.853030 1_654
Ni1 O7 1.895053 1_645
Ni1 O0 1.934529 1_554
F0 Li8 1.898394 1_555
F0 Li2 1.976325 1_555
F0 Li0 2.010051 1_555
F0 Li11 2.077200 1_545
F0 Li6 2.181366 1_555
F0 Ni1 2.611859 1_555
F1 Li9 1.898281 1_556
F1 Li3 1.976306 1_556
F1 Li1 2.010125 1_555
F1 Li10 2.078347 1_555
F1 Li7 2.181453 1_555
F1 Ni0 2.611546 1_555
F2 Li4 1.896125 1_554
F2 Li3 1.907358 1_555
F2 Li6 1.999150 1_555
F2 Li10 2.034624 1_554
F2 Li12 2.043341 1_555
F3 Li5 1.896067 1_555
F3 Li2 1.907763 1_565
F3 Li7 1.999102 1_555
F3 Li11 2.034579 1_555
F3 Li13 2.043307 1_555
