# generated using pymatgen
data_Ni(IO3)2
_symmetry_space_group_name_H-M   'P 1'
_cell_length_a   5.08555049
_cell_length_b   9.32022871
_cell_length_c   10.83456308
_cell_angle_alpha   89.76689988
_cell_angle_beta   90.00032103
_cell_angle_gamma   90.00002839
_symmetry_Int_Tables_number   1
_chemical_formula_structural   Ni(IO3)2
_chemical_formula_sum   'Ni4 I8 O24'
_cell_volume   513.53771993
_cell_formula_units_Z   4
loop_
 _symmetry_equiv_pos_site_id
 _symmetry_equiv_pos_as_xyz
  1  'x, y, z'
loop_
 _atom_site_type_symbol
 _atom_site_label
 _atom_site_symmetry_multiplicity
 _atom_site_fract_x
 _atom_site_fract_y
 _atom_site_fract_z
 _atom_site_occupancy
  Ni  Ni0  1  0.41373799  0.74542578  0.38352546  1
  Ni  Ni1  1  0.91380339  0.25458132  0.61647697  1
  Ni  Ni2  1  0.41362190  0.74547054  0.88351603  1
  Ni  Ni3  1  0.91363598  0.25452452  0.11647664  1
  I  I0  1  0.48610013  0.93105065  0.63041928  1
  I  I1  1  0.48593715  0.93100721  0.13041383  1
  I  I2  1  0.98612692  0.06896178  0.36957748  1
  I  I3  1  0.98592143  0.06898455  0.86957285  1
  I  I4  1  0.00264958  0.59927805  0.63457895  1
  I  I5  1  0.00257909  0.59925039  0.13461279  1
  I  I6  1  0.50273213  0.40070254  0.36545291  1
  I  I7  1  0.50260471  0.40073768  0.86539461  1
  O  O0  1  0.20842752  0.92220291  0.83143369  1
  O  O1  1  0.20871431  0.92220073  0.33150102  1
  O  O2  1  0.70844502  0.07778109  0.16855245  1
  O  O3  1  0.70872654  0.07780970  0.66849096  1
  O  O4  1  0.19082013  0.60473075  0.77817590  1
  O  O5  1  0.19072987  0.60475479  0.27825803  1
  O  O6  1  0.69086919  0.39525466  0.22183124  1
  O  O7  1  0.69072570  0.39524990  0.72175969  1
  O  O8  1  0.63900232  0.80226466  0.73587605  1
  O  O9  1  0.63900873  0.80223353  0.23584627  1
  O  O10  1  0.13899931  0.19776257  0.26410930  1
  O  O11  1  0.13901004  0.19777096  0.76415197  1
  O  O12  1  0.13498985  0.43120777  0.57618497  1
  O  O13  1  0.13493275  0.43118815  0.07620309  1
  O  O14  1  0.63501917  0.56880053  0.42381462  1
  O  O15  1  0.63491368  0.56880592  0.92381018  1
  O  O16  1  0.20608660  0.72332702  0.54526995  1
  O  O17  1  0.20602882  0.72329363  0.04526597  1
  O  O18  1  0.70618715  0.27667820  0.45474574  1
  O  O19  1  0.70604190  0.27669977  0.95473183  1
  O  O20  1  0.15531533  0.12967001  0.50861127  1
  O  O21  1  0.15512719  0.12959171  0.00863044  1
  O  O22  1  0.65529169  0.87034875  0.49136976  1
  O  O23  1  0.65513577  0.87039525  0.99135482  1
loop_
_geom_bond_atom_site_label_1
_geom_bond_atom_site_label_2
_geom_bond_distance
_geom_bond_site_symmetry_2
Ni0 O1 2.027762 1_555
Ni0 O9 2.036183 1_555
Ni0 O14 2.039856 1_555
Ni0 O16 2.055651 1_555
Ni0 O22 2.059365 1_555
Ni0 O5 2.078010 1_555
Ni1 O3 2.027847 1_555
Ni1 O11 2.035960 1_655
Ni1 O12 2.039607 1_655
Ni1 O18 2.055425 1_555
Ni1 O20 2.059318 1_655
Ni1 O7 2.078288 1_555
Ni2 O0 2.028059 1_555
Ni2 O8 2.036131 1_555
Ni2 O15 2.040193 1_555
Ni2 O17 2.055620 1_556
Ni2 O23 2.059220 1_555
Ni2 O4 2.078278 1_555
Ni3 O2 2.028117 1_555
Ni3 O10 2.035933 1_655
Ni3 O13 2.040154 1_655
Ni3 O19 2.055563 1_554
Ni3 O21 2.059248 1_655
Ni3 O6 2.078218 1_555
I0 O3 1.824147 1_565
I0 O22 1.826756 1_555
I0 O8 1.827490 1_555
I1 O2 1.824043 1_565
I1 O23 1.826596 1_554
I1 O9 1.827618 1_555
I2 O1 1.824053 1_645
I2 O20 1.826618 1_655
I2 O10 1.827598 1_655
I3 O0 1.824097 1_645
I3 O21 1.826578 1_656
I3 O11 1.827660 1_655
I4 O12 1.820737 1_555
I4 O16 1.826005 1_555
I4 O4 1.827433 1_555
I5 O13 1.820757 1_555
I5 O17 1.826224 1_555
I5 O5 1.827841 1_555
I6 O14 1.820733 1_555
I6 O18 1.825814 1_555
I6 O6 1.827579 1_555
I7 O15 1.820740 1_555
I7 O19 1.826096 1_555
I7 O7 1.827670 1_555
