# generated using pymatgen
data_Li2TiCrO4
_symmetry_space_group_name_H-M   'P 1'
_cell_length_a   5.22252087
_cell_length_b   10.43746925
_cell_length_c   10.00986362
_cell_angle_alpha   16.45089723
_cell_angle_beta   28.78421528
_cell_angle_gamma   32.79792681
_symmetry_Int_Tables_number   1
_chemical_formula_structural   Li2TiCrO4
_chemical_formula_sum   'Li2 Ti1 Cr1 O4'
_cell_volume   74.40364261
_cell_formula_units_Z   1
loop_
 _symmetry_equiv_pos_site_id
 _symmetry_equiv_pos_as_xyz
  1  'x, y, z'
loop_
 _atom_site_type_symbol
 _atom_site_label
 _atom_site_symmetry_multiplicity
 _atom_site_fract_x
 _atom_site_fract_y
 _atom_site_fract_z
 _atom_site_occupancy
  Li  Li0  1  0.00000000  0.00000000  0.00000000  1
  Li  Li1  1  0.00000000  0.50000000  0.00000000  1
  Ti  Ti0  1  0.50000000  0.00000000  0.50000000  1
  Cr  Cr0  1  0.50000200  0.49999900  0.50000000  1
  O  O0  1  0.25023800  0.00003600  0.23983800  1
  O  O1  1  0.24317600  0.50016600  0.24463400  1
  O  O2  1  0.74976100  0.99996500  0.76016200  1
  O  O3  1  0.75682400  0.49983500  0.75536600  1
loop_
_geom_bond_atom_site_label_1
_geom_bond_atom_site_label_2
_geom_bond_distance
_geom_bond_site_symmetry_2
Li0 O0 2.148777 1_455
Li0 O2 2.148777 1_544
Li0 O1 2.152817 1_545
Li0 O3 2.152825 1_454
Li0 O1 2.153432 1_554
Li0 O3 2.153436 1_445
Li1 O1 2.156340 1_455
Li1 O3 2.156344 1_554
Li1 O0 2.169571 1_555
Li1 O2 2.169577 1_454
Li1 O0 2.169660 1_564
Li1 O2 2.169662 1_445
Cr0 O2 2.039758 1_554
Cr0 O0 2.039760 1_556
Cr0 O2 2.039932 1_545
Cr0 O0 2.039946 1_565
Cr0 O1 2.051913 1_655
Cr0 O3 2.051918 1_455
O0 Ti0 2.061206 1_455
O1 Ti0 2.055512 1_564
O1 Ti0 2.056243 1_555
O2 Ti0 2.061206 1_665
O3 Ti0 2.055508 1_556
O3 Ti0 2.056235 1_565
