# generated using pymatgen
data_NbNO
_symmetry_space_group_name_H-M   'P 1'
_cell_length_a   5.02537217
_cell_length_b   5.08412688
_cell_length_c   5.24459321
_cell_angle_alpha   90.00000000
_cell_angle_beta   99.61597434
_cell_angle_gamma   90.00000000
_symmetry_Int_Tables_number   1
_chemical_formula_structural   NbNO
_chemical_formula_sum   'Nb4 N4 O4'
_cell_volume   132.11468428
_cell_formula_units_Z   4
loop_
 _symmetry_equiv_pos_site_id
 _symmetry_equiv_pos_as_xyz
  1  'x, y, z'
loop_
 _atom_site_type_symbol
 _atom_site_label
 _atom_site_symmetry_multiplicity
 _atom_site_fract_x
 _atom_site_fract_y
 _atom_site_fract_z
 _atom_site_occupancy
  Nb  Nb0  1  0.29262396  0.45248483  0.71957235  1
  Nb  Nb1  1  0.70737604  0.95248483  0.78042765  1
  Nb  Nb2  1  0.70737604  0.54751517  0.28042765  1
  Nb  Nb3  1  0.29262396  0.04751517  0.21957235  1
  N  N0  1  0.44440308  0.74517444  0.97551205  1
  N  N1  1  0.55559692  0.24517444  0.52448795  1
  N  N2  1  0.55559692  0.25482556  0.02448795  1
  N  N3  1  0.44440308  0.75482556  0.47551205  1
  O  O0  1  0.06147820  0.32314618  0.34952919  1
  O  O1  1  0.93852180  0.82314618  0.15047081  1
  O  O2  1  0.93852180  0.67685382  0.65047081  1
  O  O3  1  0.06147820  0.17685382  0.84952919  1
loop_
_geom_bond_atom_site_label_1
_geom_bond_atom_site_label_2
_geom_bond_distance
_geom_bond_site_symmetry_2
Nb0 O3 2.010497 1_555
Nb0 O2 2.093736 1_455
Nb0 O0 2.189743 1_555
Nb1 O2 2.010497 1_555
Nb1 O3 2.093736 1_665
Nb1 O1 2.189743 1_556
Nb2 O1 2.010497 1_555
Nb2 O0 2.093736 1_655
Nb2 O2 2.189743 1_555
Nb3 O0 2.010497 1_555
Nb3 O1 2.093736 1_445
Nb3 O3 2.189743 1_554
N0 Nb0 2.062973 1_555
N0 Nb1 2.087078 1_555
N0 Nb2 2.146532 1_556
N0 Nb3 2.215659 1_566
N0 O1 2.530580 1_556
N0 N2 2.558378 1_556
N0 N3 2.622756 1_556
N0 N3 2.622756 1_555
N0 O1 2.870791 1_456
N1 Nb1 2.062973 1_545
N1 Nb0 2.087078 1_555
N1 Nb3 2.146532 1_555
N1 Nb2 2.215659 1_555
N1 O0 2.530580 1_555
N1 N3 2.558378 1_545
N1 N2 2.622756 1_556
N1 N2 2.622756 1_555
N1 O0 2.870791 1_655
N2 Nb2 2.062973 1_555
N2 Nb3 2.087078 1_555
N2 Nb0 2.146532 1_554
N2 Nb1 2.215659 1_544
N2 O3 2.530580 1_554
N2 O3 2.870791 1_654
N3 Nb3 2.062973 1_565
N3 Nb2 2.087078 1_555
N3 Nb1 2.146532 1_555
N3 Nb0 2.215659 1_555
N3 O2 2.530580 1_555
N3 O2 2.870791 1_455
O0 O2 2.536250 1_455
O0 O3 2.725735 1_554
O0 O3 2.725735 1_555
O0 O1 2.778178 1_445
O0 O1 2.778178 1_455
O1 O3 2.536250 1_664
O1 O2 2.725735 1_554
O1 O2 2.725735 1_555
O2 O3 2.778178 1_655
O2 O3 2.778178 1_665
