# generated using pymatgen
data_Na2Te2H4O7
_symmetry_space_group_name_H-M   'P 1'
_cell_length_a   11.74848700
_cell_length_b   5.74123382
_cell_length_c   6.33385864
_cell_angle_alpha   103.01002530
_cell_angle_beta   93.77503730
_cell_angle_gamma   92.78967919
_symmetry_Int_Tables_number   1
_chemical_formula_structural   Na2Te2H4O7
_chemical_formula_sum   'Na4 Te4 H8 O14'
_cell_volume   414.46751743
_cell_formula_units_Z   2
loop_
 _symmetry_equiv_pos_site_id
 _symmetry_equiv_pos_as_xyz
  1  'x, y, z'
loop_
 _atom_site_type_symbol
 _atom_site_label
 _atom_site_symmetry_multiplicity
 _atom_site_fract_x
 _atom_site_fract_y
 _atom_site_fract_z
 _atom_site_occupancy
  Na  Na0  1  0.72734800  0.95030100  0.39373900  1
  Na  Na1  1  0.27265200  0.04969900  0.60626100  1
  Na  Na2  1  0.72008800  0.43280800  0.89436900  1
  Na  Na3  1  0.27991200  0.56719200  0.10563100  1
  Te  Te0  1  0.94064900  0.13732500  0.95944700  1
  Te  Te1  1  0.05935100  0.86267500  0.04055300  1
  Te  Te2  1  0.99839700  0.63732300  0.54491800  1
  Te  Te3  1  0.00160300  0.36267700  0.45508200  1
  H  H0  1  0.59863600  0.18855100  0.41020200  1
  H  H1  1  0.40136400  0.81144900  0.58979800  1
  H  H2  1  0.59181300  0.86747000  0.79757500  1
  H  H3  1  0.40818700  0.13253000  0.20242500  1
  H  H4  1  0.65810300  0.68641800  0.94839800  1
  H  H5  1  0.34189700  0.31358200  0.05160200  1
  H  H6  1  0.53060600  0.36352400  0.26892200  1
  H  H7  1  0.46939400  0.63647600  0.73107800  1
  O  O0  1  0.99567300  0.94938100  0.76580900  1
  O  O1  1  0.00432700  0.05061900  0.23419100  1
  O  O2  1  0.94648200  0.49691700  0.27258700  1
  O  O3  1  0.05351800  0.50308300  0.72741300  1
  O  O4  1  0.89104600  0.28100400  0.11910400  1
  O  O5  1  0.10895400  0.71899600  0.88089600  1
  O  O6  1  0.77581200  0.82102600  0.07268600  1
  O  O7  1  0.22418800  0.17897400  0.92731400  1
  O  O8  1  0.73329400  0.32314600  0.52781800  1
  O  O9  1  0.26670600  0.67685400  0.47218200  1
  O  O10  1  0.57410000  0.61367700  0.87333100  1
  O  O11  1  0.42590000  0.38632300  0.12666900  1
  O  O12  1  0.50651200  0.11578200  0.35621100  1
  O  O13  1  0.49348800  0.88421800  0.64378900  1
loop_
_geom_bond_atom_site_label_1
_geom_bond_atom_site_label_2
_geom_bond_distance
_geom_bond_site_symmetry_2
Na0 O8 2.113613 1_565
Na0 O6 2.127029 1_555
Na1 O9 2.113613 1_545
Na1 O7 2.127029 1_555
Na2 O10 2.059933 1_555
Na2 O8 2.282429 1_555
Na2 O6 2.301994 1_556
Na3 O11 2.059933 1_555
Na3 O9 2.282429 1_555
Na3 O7 2.301994 1_554
Te2 Te3 1.554396 1_655
H0 O12 1.142725 1_555
H0 H6 1.684461 1_555
H0 O8 1.766787 1_555
H0 Na0 2.080007 1_545
H1 O13 1.142725 1_555
H1 H7 1.684461 1_555
H1 O9 1.766787 1_555
H1 Na1 2.080007 1_565
H2 O13 1.482319 1_555
H2 O10 1.641663 1_555
H2 H4 1.739978 1_555
H2 H7 1.867561 1_555
H3 O12 1.482319 1_555
H3 O11 1.641663 1_555
H3 H5 1.739978 1_555
H3 H6 1.867561 1_555
H4 O10 1.087728 1_555
H4 O6 1.614956 1_556
H4 Na2 1.636810 1_555
H5 O11 1.087728 1_555
H5 O7 1.614956 1_554
H5 Na3 1.636810 1_555
H6 O11 1.504997 1_555
H6 O12 1.656606 1_555
H7 O10 1.504997 1_555
H7 O13 1.656606 1_555
O0 Te0 1.631837 1_565
O0 Te2 2.012759 1_555
O0 Te1 2.022523 1_656
O0 O5 2.128342 1_655
O1 Te1 1.631837 1_545
O1 Te3 2.012759 1_555
O1 Te0 2.022523 1_454
O1 O4 2.128342 1_455
O2 O4 1.483687 1_555
O2 Te3 1.643341 1_655
O2 Te2 1.784566 1_555
O3 O5 1.483687 1_555
O3 Te2 1.643341 1_455
O3 Te3 1.784566 1_555
O4 Te0 1.338466 1_554
O5 Te1 1.338466 1_556
