# generated using pymatgen
data_LiCu2(CO3)2
_symmetry_space_group_name_H-M   'P 1'
_cell_length_a   6.53184215
_cell_length_b   5.03984922
_cell_length_c   5.03109801
_cell_angle_alpha   59.88779293
_cell_angle_beta   111.48327814
_cell_angle_gamma   89.77132441
_symmetry_Int_Tables_number   1
_chemical_formula_structural   LiCu2(CO3)2
_chemical_formula_sum   'Li1 Cu2 C2 O6'
_cell_volume   129.63978305
_cell_formula_units_Z   1
loop_
 _symmetry_equiv_pos_site_id
 _symmetry_equiv_pos_as_xyz
  1  'x, y, z'
loop_
 _atom_site_type_symbol
 _atom_site_label
 _atom_site_symmetry_multiplicity
 _atom_site_fract_x
 _atom_site_fract_y
 _atom_site_fract_z
 _atom_site_occupancy
  Li  Li0  1  0.65007300  0.63552300  0.42399000  1
  Cu  Cu0  1  0.22706900  0.74888000  0.84238200  1
  Cu  Cu1  1  0.77931700  0.25715100  0.16668600  1
  C  C0  1  0.25444700  0.07300100  0.18273600  1
  C  C1  1  0.74743300  0.92909700  0.81444000  1
  O  O0  1  0.26644500  0.32782000  0.93737700  1
  O  O1  1  0.18444100  0.07972900  0.38985500  1
  O  O2  1  0.31634600  0.80372500  0.22386300  1
  O  O3  1  0.73670700  0.19807600  0.78485200  1
  O  O4  1  0.78728400  0.89172900  0.59740900  1
  O  O5  1  0.72095200  0.69073800  0.06067400  1
loop_
_geom_bond_atom_site_label_1
_geom_bond_atom_site_label_2
_geom_bond_distance
_geom_bond_site_symmetry_2
Li0 O3 1.923084 1_555
Li0 O5 1.934791 1_555
Li0 O4 1.949019 1_555
Li0 O2 2.001340 1_555
Cu0 O0 1.919831 1_555
Cu0 O1 1.940128 1_565
Cu0 O2 1.952912 1_556
Cu0 O4 2.605597 1_455
Cu1 O5 1.969754 1_555
Cu1 O4 2.000645 1_545
Cu1 O3 2.009837 1_554
Cu1 O1 2.420769 1_655
C0 O0 1.288496 1_554
C0 O1 1.296311 1_555
C0 O2 1.304078 1_545
C1 O3 1.286032 1_565
C1 O5 1.293479 1_556
C1 O4 1.307518 1_555
