# generated using pymatgen
data_Li3Mn4(BO3)4
_symmetry_space_group_name_H-M   'P 1'
_cell_length_a   6.17175400
_cell_length_b   7.92705126
_cell_length_c   10.47604656
_cell_angle_alpha   88.04722269
_cell_angle_beta   87.26613138
_cell_angle_gamma   80.25728385
_symmetry_Int_Tables_number   1
_chemical_formula_structural   Li3Mn4(BO3)4
_chemical_formula_sum   'Li6 Mn8 B8 O24'
_cell_volume   504.38524185
_cell_formula_units_Z   2
loop_
 _symmetry_equiv_pos_site_id
 _symmetry_equiv_pos_as_xyz
  1  'x, y, z'
loop_
 _atom_site_type_symbol
 _atom_site_label
 _atom_site_symmetry_multiplicity
 _atom_site_fract_x
 _atom_site_fract_y
 _atom_site_fract_z
 _atom_site_occupancy
  Li  Li0  1  0.53469400  0.15305600  0.95741400  1
  Li  Li1  1  0.53307400  0.15291300  0.45361900  1
  Li  Li2  1  0.02033400  0.64021600  0.71709500  1
  Li  Li3  1  0.97966600  0.35978400  0.28290500  1
  Li  Li4  1  0.46692600  0.84708700  0.54638100  1
  Li  Li5  1  0.46530600  0.84694400  0.04258600  1
  Mn  Mn0  1  0.74645700  0.00888700  0.70115200  1
  Mn  Mn1  1  0.25232800  0.49708100  0.95336600  1
  Mn  Mn2  1  0.77230900  0.97914400  0.20080400  1
  Mn  Mn3  1  0.25180300  0.50834900  0.44432500  1
  Mn  Mn4  1  0.74819700  0.49165100  0.55567500  1
  Mn  Mn5  1  0.22769100  0.02085600  0.79919600  1
  Mn  Mn6  1  0.74767200  0.50291900  0.04663400  1
  Mn  Mn7  1  0.25354300  0.99111300  0.29884800  1
  B  B0  1  0.09424000  0.16882500  0.54275000  1
  B  B1  1  0.40722300  0.33964600  0.70146900  1
  B  B2  1  0.10038200  0.16969200  0.05555700  1
  B  B3  1  0.42453500  0.32428000  0.19997600  1
  B  B4  1  0.57546500  0.67572000  0.80002400  1
  B  B5  1  0.89961800  0.83030800  0.94444300  1
  B  B6  1  0.59277700  0.66035400  0.29853100  1
  B  B7  1  0.90576000  0.83117500  0.45725000  1
  O  O0  1  0.25495200  0.04699400  0.99678700  1
  O  O1  1  0.03199800  0.32855400  0.99780400  1
  O  O2  1  0.01289600  0.14319800  0.66639900  1
  O  O3  1  0.26079400  0.04890400  0.49061100  1
  O  O4  1  0.47706400  0.18626000  0.77122900  1
  O  O5  1  0.01134600  0.31941800  0.47482800  1
  O  O6  1  0.01754000  0.13996500  0.17933600  1
  O  O7  1  0.27146200  0.47319500  0.75652200  1
  O  O8  1  0.47937100  0.34832600  0.57212300  1
  O  O9  1  0.50395500  0.16774400  0.26130100  1
  O  O10  1  0.50267500  0.64973200  0.92987900  1
  O  O11  1  0.26564400  0.44186700  0.25547500  1
  O  O12  1  0.73435600  0.55813300  0.74452500  1
  O  O13  1  0.49732500  0.35026800  0.07012100  1
  O  O14  1  0.49604500  0.83225600  0.73869900  1
  O  O15  1  0.52062900  0.65167400  0.42787700  1
  O  O16  1  0.72853800  0.52680500  0.24347800  1
  O  O17  1  0.98246000  0.86003500  0.82066400  1
  O  O18  1  0.98865400  0.68058200  0.52517200  1
  O  O19  1  0.52293600  0.81374000  0.22877100  1
  O  O20  1  0.73920600  0.95109600  0.50938900  1
  O  O21  1  0.98710400  0.85680200  0.33360100  1
  O  O22  1  0.96800200  0.67144600  0.00219600  1
  O  O23  1  0.74504800  0.95300600  0.00321300  1
loop_
_geom_bond_atom_site_label_1
_geom_bond_atom_site_label_2
_geom_bond_distance
_geom_bond_site_symmetry_2
Li0 O23 1.934224 1_546
Li0 O13 1.966985 1_556
Li0 O4 1.999919 1_555
Li0 O0 2.063376 1_555
Li1 O20 1.958980 1_545
Li1 O8 1.992148 1_555
Li1 O3 2.009695 1_555
Li1 O9 2.028919 1_555
Li2 O7 1.911809 1_555
Li2 O12 1.987131 1_455
Li2 O18 2.038526 1_455
Li2 O17 2.057915 1_455
Li3 O16 1.911809 1_555
Li3 O11 1.987131 1_655
Li3 O5 2.038526 1_655
Li3 O6 2.057915 1_655
Li4 O3 1.958980 1_565
Li4 O15 1.992148 1_555
Li4 O20 2.009695 1_555
Li4 O14 2.028919 1_555
Li5 O0 1.934224 1_564
Li5 O10 1.966985 1_554
Li5 O19 1.999919 1_555
Li5 O23 2.063376 1_555
Mn0 O20 2.079869 1_545
Mn0 O4 2.107830 1_555
Mn0 O2 2.116405 1_655
Mn0 O17 2.138453 1_545
Mn0 O14 2.267276 1_545
Mn1 O7 2.073176 1_555
Mn1 O1 2.088680 1_555
Mn1 O22 2.095973 1_456
Mn1 O10 2.118564 1_555
Mn1 O13 2.149566 1_556
Mn2 O21 2.069341 1_555
Mn2 O23 2.104822 1_555
Mn2 O9 2.122798 1_565
Mn2 O6 2.137172 1_665
Mn2 O19 2.188039 1_555
Mn3 O11 2.058835 1_555
Mn3 O18 2.101470 1_455
Mn3 O15 2.161154 1_555
Mn3 O8 2.198818 1_555
Mn3 O5 2.285142 1_555
Mn4 O12 2.058835 1_555
Mn4 O5 2.101470 1_655
Mn4 O8 2.161154 1_555
Mn4 O15 2.198818 1_555
Mn4 O18 2.285142 1_555
Mn5 O2 2.069341 1_555
Mn5 O0 2.104822 1_555
Mn5 O14 2.122798 1_545
Mn5 O17 2.137172 1_445
Mn5 O4 2.188039 1_555
Mn6 O16 2.073176 1_555
Mn6 O22 2.088680 1_555
Mn6 O1 2.095973 1_654
Mn6 O13 2.118564 1_555
Mn6 O10 2.149566 1_554
Mn7 O3 2.079869 1_565
Mn7 O19 2.107830 1_555
Mn7 O21 2.116405 1_455
Mn7 O6 2.138453 1_565
Mn7 O9 2.267276 1_565
B0 O3 1.381944 1_555
B0 O2 1.387730 1_555
B0 O5 1.401157 1_555
B1 O7 1.360410 1_555
B1 O8 1.409108 1_555
B1 O4 1.410814 1_555
B2 O0 1.380536 1_554
B2 O1 1.386573 1_554
B2 O6 1.398254 1_555
B3 O11 1.357096 1_555
B3 O9 1.400930 1_555
B3 O13 1.431356 1_555
B4 O12 1.357096 1_555
B4 O14 1.400930 1_555
B4 O10 1.431356 1_555
B5 O23 1.380536 1_556
B5 O22 1.386573 1_556
B5 O17 1.398254 1_555
B6 O16 1.360410 1_555
B6 O15 1.409108 1_555
B6 O19 1.410814 1_555
B7 O20 1.381944 1_555
B7 O21 1.387730 1_555
B7 O18 1.401157 1_555
