# generated using pymatgen
data_LiSiSbCO7
_symmetry_space_group_name_H-M   'P 1'
_cell_length_a   6.46403100
_cell_length_b   5.21733900
_cell_length_c   9.02015530
_cell_angle_alpha   86.18610854
_cell_angle_beta   90.00000000
_cell_angle_gamma   90.00000000
_symmetry_Int_Tables_number   1
_chemical_formula_structural   LiSiSbCO7
_chemical_formula_sum   'Li2 Si2 Sb2 C2 O14'
_cell_volume   303.53140608
_cell_formula_units_Z   2
loop_
 _symmetry_equiv_pos_site_id
 _symmetry_equiv_pos_as_xyz
  1  'x, y, z'
loop_
 _atom_site_type_symbol
 _atom_site_label
 _atom_site_symmetry_multiplicity
 _atom_site_fract_x
 _atom_site_fract_y
 _atom_site_fract_z
 _atom_site_occupancy
  Li  Li0  1  0.50902300  0.77052500  0.80070700  1
  Li  Li1  1  0.00902300  0.22947500  0.19929300  1
  Si  Si0  1  0.75006800  0.27541900  0.57028300  1
  Si  Si1  1  0.25006800  0.72458100  0.42971700  1
  Sb  Sb0  1  0.24564000  0.20243400  0.65982100  1
  Sb  Sb1  1  0.74564000  0.79756600  0.34017900  1
  C  C0  1  0.25166100  0.27616600  0.93308200  1
  C  C1  1  0.75166100  0.72383400  0.06691800  1
  O  O0  1  0.72533900  0.68550900  0.93556600  1
  O  O1  1  0.25416000  0.04417200  0.87623800  1
  O  O2  1  0.27465600  0.46521700  0.82361900  1
  O  O3  1  0.94553600  0.20150400  0.67830500  1
  O  O4  1  0.55221100  0.17323700  0.67046100  1
  O  O5  1  0.25780000  0.85510500  0.59015800  1
  O  O6  1  0.73605500  0.58865300  0.52938200  1
  O  O7  1  0.23605500  0.41134700  0.47061800  1
  O  O8  1  0.75780000  0.14489500  0.40984200  1
  O  O9  1  0.05221100  0.82676300  0.32953900  1
  O  O10  1  0.44553600  0.79849600  0.32169500  1
  O  O11  1  0.77465600  0.53478300  0.17638100  1
  O  O12  1  0.75416000  0.95582800  0.12376200  1
  O  O13  1  0.22533900  0.31449100  0.06443400  1
loop_
_geom_bond_atom_site_label_1
_geom_bond_atom_site_label_2
_geom_bond_distance
_geom_bond_site_symmetry_2
Li0 O0 1.886765 1_555
Li0 O2 2.198027 1_555
Li0 O1 2.312140 1_565
Li0 O4 2.354647 1_565
Li0 O5 2.515400 1_555
Li1 O13 1.886765 1_555
Li1 O11 2.198027 1_455
Li1 O12 2.312140 1_445
Li1 O9 2.354647 1_545
Li1 O8 2.515400 1_455
C0 O13 1.226473 1_556
C0 O1 1.345650 1_555
C0 O2 1.356582 1_555
C1 O0 1.226473 1_554
C1 O12 1.345650 1_555
C1 O11 1.356582 1_555
O1 Sb0 2.069093 1_555
O2 Sb0 2.089816 1_555
O3 Si0 1.626222 1_555
O3 Sb0 1.947012 1_655
O4 Si0 1.634742 1_555
O4 Sb0 1.989358 1_555
O5 Si1 1.640654 1_555
O5 Sb0 1.958657 1_565
O6 Si0 1.653746 1_555
O6 Sb1 1.963933 1_555
O7 Si1 1.653746 1_555
O7 Sb0 1.963933 1_555
O8 Si0 1.640654 1_555
O8 Sb1 1.958657 1_545
O9 Si1 1.634742 1_555
O9 Sb1 1.989358 1_455
O10 Si1 1.626222 1_555
O10 Sb1 1.947012 1_555
O11 Sb1 2.089816 1_555
O12 Sb1 2.069093 1_555
