# generated using pymatgen
data_LiTePO5
_symmetry_space_group_name_H-M   'P 1'
_cell_length_a   6.81560600
_cell_length_b   7.36584200
_cell_length_c   8.76165000
_cell_angle_alpha   90.00000000
_cell_angle_beta   90.00000000
_cell_angle_gamma   90.00000000
_symmetry_Int_Tables_number   1
_chemical_formula_structural   LiTePO5
_chemical_formula_sum   'Li4 Te4 P4 O20'
_cell_volume   439.85828433
_cell_formula_units_Z   4
loop_
 _symmetry_equiv_pos_site_id
 _symmetry_equiv_pos_as_xyz
  1  'x, y, z'
loop_
 _atom_site_type_symbol
 _atom_site_label
 _atom_site_symmetry_multiplicity
 _atom_site_fract_x
 _atom_site_fract_y
 _atom_site_fract_z
 _atom_site_occupancy
  Li  Li0  1  0.00000000  0.00000000  0.00000000  1
  Li  Li1  1  0.50000000  0.00000000  0.00000000  1
  Li  Li2  1  0.00000000  0.50000000  0.50000000  1
  Li  Li3  1  0.50000000  0.50000000  0.50000000  1
  Te  Te0  1  0.25000000  0.72151500  0.13715600  1
  Te  Te1  1  0.75000000  0.22151500  0.36284400  1
  Te  Te2  1  0.25000000  0.77848500  0.63715600  1
  Te  Te3  1  0.75000000  0.27848500  0.86284400  1
  P  P0  1  0.75000000  0.63668300  0.12699200  1
  P  P1  1  0.25000000  0.13668300  0.37300800  1
  P  P2  1  0.75000000  0.86331700  0.62699200  1
  P  P3  1  0.25000000  0.36331700  0.87300800  1
  O  O0  1  0.25000000  0.47306500  0.02589000  1
  O  O1  1  0.75000000  0.14331200  0.04151200  1
  O  O2  1  0.56831500  0.76613500  0.12406600  1
  O  O3  1  0.93168500  0.76613500  0.12406600  1
  O  O4  1  0.25000000  0.01625100  0.22965900  1
  O  O5  1  0.75000000  0.51625100  0.27034100  1
  O  O6  1  0.06831500  0.26613500  0.37593400  1
  O  O7  1  0.43168500  0.26613500  0.37593400  1
  O  O8  1  0.25000000  0.64331200  0.45848800  1
  O  O9  1  0.75000000  0.97306500  0.47411000  1
  O  O10  1  0.25000000  0.02693500  0.52589000  1
  O  O11  1  0.75000000  0.35668800  0.54151200  1
  O  O12  1  0.56831500  0.73386500  0.62406600  1
  O  O13  1  0.93168500  0.73386500  0.62406600  1
  O  O14  1  0.25000000  0.48374900  0.72965900  1
  O  O15  1  0.75000000  0.98374900  0.77034100  1
  O  O16  1  0.06831500  0.23386500  0.87593400  1
  O  O17  1  0.43168500  0.23386500  0.87593400  1
  O  O18  1  0.25000000  0.85668800  0.95848800  1
  O  O19  1  0.75000000  0.52693500  0.97411000  1
loop_
_geom_bond_atom_site_label_1
_geom_bond_atom_site_label_2
_geom_bond_distance
_geom_bond_site_symmetry_2
Li0 O18 2.037127 1_544
Li0 O1 2.037127 1_455
Li0 O16 2.089451 1_554
Li0 O3 2.089451 1_445
Li0 O4 2.639417 1_555
Li0 O15 2.639417 1_444
Li1 O1 2.037127 1_555
Li1 O18 2.037127 1_544
Li1 O17 2.089451 1_554
Li1 O2 2.089451 1_545
Li1 O4 2.639417 1_555
Li1 O15 2.639417 1_544
Li2 O11 2.037127 1_455
Li2 O8 2.037127 1_555
Li2 O13 2.089451 1_455
Li2 O6 2.089451 1_555
Li2 O14 2.639417 1_555
Li2 O5 2.639417 1_455
Li3 O8 2.037127 1_555
Li3 O11 2.037127 1_555
Li3 O12 2.089451 1_555
Li3 O7 2.089451 1_555
Li3 O14 2.639417 1_555
Li3 O5 2.639417 1_555
O0 P3 1.564527 1_554
O0 Te0 2.073509 1_555
O1 Te3 1.855237 1_554
O2 P0 1.563085 1_555
O2 Te0 2.197259 1_555
O3 P0 1.563085 1_555
O3 Te0 2.197259 1_655
O4 P1 1.537656 1_555
O4 Te0 2.317331 1_545
O5 P0 1.537656 1_555
O5 Te1 2.317331 1_555
O6 P1 1.563085 1_555
O6 Te1 2.197259 1_455
O7 P1 1.563085 1_555
O7 Te1 2.197259 1_555
O8 Te2 1.855237 1_555
O9 P2 1.564527 1_555
O9 Te1 2.073509 1_565
O10 P1 1.564527 1_555
O10 Te2 2.073509 1_545
O11 Te1 1.855237 1_555
O12 P2 1.563085 1_555
O12 Te2 2.197259 1_555
O13 P2 1.563085 1_555
O13 Te2 2.197259 1_655
O14 P3 1.537656 1_555
O14 Te2 2.317331 1_555
O15 P2 1.537656 1_555
O15 Te3 2.317331 1_565
O16 P3 1.563085 1_555
O16 Te3 2.197259 1_455
O17 P3 1.563085 1_555
O17 Te3 2.197259 1_555
O18 Te0 1.855237 1_556
O19 P0 1.564527 1_556
O19 Te3 2.073509 1_555
