# generated using pymatgen
data_Li3Fe2(PO4)3
_symmetry_space_group_name_H-M   'P 1'
_cell_length_a   9.79586287
_cell_length_b   9.79586287
_cell_length_c   9.75104519
_cell_angle_alpha   86.42361485
_cell_angle_beta   86.42361485
_cell_angle_gamma   85.58237064
_symmetry_Int_Tables_number   1
_chemical_formula_structural   Li3Fe2(PO4)3
_chemical_formula_sum   'Li12 Fe8 P12 O48'
_cell_volume   929.54334988
_cell_formula_units_Z   4
loop_
 _symmetry_equiv_pos_site_id
 _symmetry_equiv_pos_as_xyz
  1  'x, y, z'
loop_
 _atom_site_type_symbol
 _atom_site_label
 _atom_site_symmetry_multiplicity
 _atom_site_fract_x
 _atom_site_fract_y
 _atom_site_fract_z
 _atom_site_occupancy
  Li  Li0  1  0.98874100  0.50171300  0.23515100  1
  Li  Li1  1  0.62226500  0.74745200  0.79909000  1
  Li  Li2  1  0.79038200  0.55832500  0.47209600  1
  Li  Li3  1  0.76596700  0.73214700  0.18107600  1
  Li  Li4  1  0.28899100  0.93089400  0.96790600  1
  Li  Li5  1  0.00143100  0.25348300  0.39217700  1
  Li  Li6  1  0.74651700  0.99856900  0.60782300  1
  Li  Li7  1  0.06910600  0.71100900  0.03209400  1
  Li  Li8  1  0.26785300  0.23403300  0.81892400  1
  Li  Li9  1  0.44167500  0.20961800  0.52790400  1
  Li  Li10  1  0.25254800  0.37773500  0.20091000  1
  Li  Li11  1  0.49828700  0.01125900  0.76484900  1
  Fe  Fe0  1  0.97493000  0.25374500  0.77766900  1
  Fe  Fe1  1  0.25253600  0.97060900  0.27736500  1
  Fe  Fe2  1  0.47414000  0.52586000  0.50000000  1
  Fe  Fe3  1  0.25047800  0.74952200  0.50000000  1
  Fe  Fe4  1  0.75221000  0.24779000  0.00000000  1
  Fe  Fe5  1  0.52737600  0.47262400  0.00000000  1
  Fe  Fe6  1  0.02939100  0.74746400  0.72263500  1
  Fe  Fe7  1  0.74625500  0.02507000  0.22233100  1
  P  P0  1  0.82625500  0.94712000  0.90336000  1
  P  P1  1  0.94917100  0.82029000  0.40580700  1
  P  P2  1  0.84195000  0.55121900  0.92921700  1
  P  P3  1  0.55470400  0.83703800  0.42935400  1
  P  P4  1  0.34709800  0.68214800  0.80107500  1
  P  P5  1  0.66109200  0.31764000  0.69903200  1
  P  P6  1  0.68236000  0.33890800  0.30096800  1
  P  P7  1  0.31785200  0.65290200  0.19892500  1
  P  P8  1  0.16296200  0.44529600  0.57064600  1
  P  P9  1  0.44878100  0.15805000  0.07078300  1
  P  P10  1  0.17971000  0.05082900  0.59419300  1
  P  P11  1  0.05288000  0.17374500  0.09664000  1
  O  O0  1  0.96842700  0.87252700  0.86742800  1
  O  O1  1  0.88388100  0.96055700  0.35197700  1
  O  O2  1  0.91658500  0.81126200  0.56476600  1
  O  O3  1  0.79434800  0.90878800  0.05896300  1
  O  O4  1  0.71475900  0.91281600  0.81042800  1
  O  O5  1  0.89739300  0.69772400  0.33841000  1
  O  O6  1  0.90376700  0.61438500  0.79280100  1
  O  O7  1  0.59363900  0.90970600  0.55314700  1
  O  O8  1  0.62638500  0.88307500  0.28926600  1
  O  O9  1  0.90046400  0.60203000  0.05812200  1
  O  O10  1  0.87536100  0.39119200  0.92461000  1
  O  O11  1  0.68385200  0.58801200  0.92962600  1
  O  O12  1  0.42116800  0.80512500  0.84073900  1
  O  O13  1  0.59223100  0.67882600  0.44452500  1
  O  O14  1  0.39436200  0.86952300  0.41375900  1
  O  O15  1  0.80856900  0.40303700  0.34774000  1
  O  O16  1  0.81863600  0.30851000  0.66853800  1
  O  O17  1  0.29773000  0.80913300  0.15685800  1
  O  O18  1  0.60937900  0.45648600  0.62950900  1
  O  O19  1  0.37643500  0.66871400  0.64022000  1
  O  O20  1  0.17460400  0.89095700  0.62735300  1
  O  O21  1  0.84107000  0.10654600  0.87631400  1
  O  O22  1  0.45731700  0.59715500  0.13535200  1
  O  O23  1  0.62412000  0.32708900  0.85983500  1
  O  O24  1  0.67291100  0.37588000  0.14016500  1
  O  O25  1  0.40284500  0.54268300  0.86464800  1
  O  O26  1  0.89345400  0.15893000  0.12368600  1
  O  O27  1  0.10904300  0.82539600  0.37264700  1
  O  O28  1  0.33128600  0.62356400  0.35978000  1
  O  O29  1  0.54351400  0.39062100  0.37049100  1
  O  O30  1  0.19086700  0.70227000  0.84314200  1
  O  O31  1  0.69149000  0.18136400  0.33146200  1
  O  O32  1  0.59696300  0.19143100  0.65226000  1
  O  O33  1  0.13047700  0.60563800  0.58624100  1
  O  O34  1  0.32117400  0.40776900  0.55547500  1
  O  O35  1  0.19487500  0.57883200  0.15926100  1
  O  O36  1  0.41198800  0.31614800  0.07037400  1
  O  O37  1  0.60880800  0.12463900  0.07539000  1
  O  O38  1  0.39797000  0.09953600  0.94187800  1
  O  O39  1  0.11692500  0.37361500  0.71073400  1
  O  O40  1  0.09029400  0.40636100  0.44685300  1
  O  O41  1  0.38561500  0.09623300  0.20719900  1
  O  O42  1  0.30227600  0.10260700  0.66159000  1
  O  O43  1  0.08718400  0.28524100  0.18957200  1
  O  O44  1  0.09121200  0.20565200  0.94103700  1
  O  O45  1  0.18873800  0.08341500  0.43523400  1
  O  O46  1  0.03944300  0.11611900  0.64802300  1
  O  O47  1  0.12747300  0.03157300  0.13257200  1
loop_
_geom_bond_atom_site_label_1
_geom_bond_atom_site_label_2
_geom_bond_distance
_geom_bond_site_symmetry_2
Li0 O9 2.130022 1_555
Li0 O15 2.267893 1_555
Li0 O35 2.274765 1_655
Li0 O5 2.316337 1_555
Li0 O43 2.318018 1_655
Li0 O40 2.448670 1_655
Li1 O4 1.928245 1_555
Li1 O12 2.030285 1_555
Li1 O11 2.031294 1_555
Li2 O15 1.994381 1_555
Li2 O5 2.119154 1_555
Li2 O13 2.214928 1_555
Li2 O18 2.497395 1_555
Li3 O5 2.059092 1_555
Li3 O3 2.065188 1_555
Li3 O9 2.129034 1_555
Li3 O8 2.207173 1_555
Li4 O38 2.029463 1_565
Li4 O12 2.115777 1_555
Li4 O17 2.134127 1_556
Li4 O47 2.386302 1_566
Li5 O40 1.908679 1_555
Li5 O43 2.112344 1_555
Li5 O15 2.345172 1_455
Li5 O45 2.419973 1_555
Li6 O7 1.908679 1_555
Li6 O4 2.112344 1_555
Li6 O32 2.345172 1_565
Li6 O2 2.419973 1_555
Li7 O9 2.029463 1_455
Li7 O35 2.115777 1_555
Li7 O30 2.134127 1_554
Li7 O0 2.386302 1_454
Li8 O42 2.059092 1_555
Li8 O44 2.065188 1_555
Li8 O38 2.129034 1_555
Li8 O39 2.207173 1_555
Li9 O32 1.994381 1_555
Li9 O42 2.119154 1_555
Li9 O34 2.214928 1_555
Li9 O29 2.497395 1_555
Li10 O43 1.928245 1_555
Li10 O35 2.030285 1_555
Li10 O36 2.031294 1_555
Li11 O38 2.130022 1_555
Li11 O32 2.267893 1_555
Li11 O12 2.274765 1_545
Li11 O42 2.316337 1_555
Li11 O4 2.318018 1_545
Li11 O7 2.448670 1_545
Fe0 O16 1.941590 1_555
Fe0 O39 1.944822 1_655
Fe0 O46 1.948536 1_655
Fe0 O44 2.026627 1_655
Fe0 O10 2.163603 1_555
Fe0 O21 2.164429 1_555
Fe1 O41 1.926846 1_565
Fe1 O47 1.961841 1_565
Fe1 O45 1.991781 1_565
Fe1 O17 2.034201 1_555
Fe1 O14 2.129287 1_555
Fe1 O27 2.200618 1_555
Fe2 O18 1.942839 1_555
Fe2 O29 1.942839 1_555
Fe2 O13 1.990968 1_555
Fe2 O34 1.990968 1_555
Fe2 O28 2.147765 1_555
Fe2 O19 2.147768 1_555
Fe3 O19 1.985819 1_555
Fe3 O28 1.985825 1_555
Fe3 O20 1.988709 1_555
Fe3 O27 1.988709 1_555
Fe3 O14 2.014857 1_555
Fe3 O33 2.014857 1_555
Fe4 O24 1.994289 1_555
Fe4 O23 1.994289 1_554
Fe4 O10 1.997660 1_554
Fe4 O37 1.997660 1_555
Fe4 O26 2.004581 1_555
Fe4 O21 2.004581 1_554
Fe5 O25 1.913098 1_554
Fe5 O22 1.913098 1_555
Fe5 O11 2.033955 1_554
Fe5 O36 2.033955 1_555
Fe5 O24 2.161470 1_555
Fe5 O23 2.161470 1_554
Fe6 O6 1.926846 1_455
Fe6 O0 1.961841 1_455
Fe6 O2 1.991781 1_455
Fe6 O30 2.034201 1_555
Fe6 O33 2.129287 1_555
Fe6 O20 2.200618 1_555
Fe7 O31 1.941590 1_555
Fe7 O8 1.944822 1_545
Fe7 O1 1.948536 1_545
Fe7 O3 2.026627 1_545
Fe7 O37 2.163603 1_555
Fe7 O26 2.164429 1_555
O0 P0 1.552607 1_555
O1 P1 1.545662 1_555
O2 P1 1.561341 1_555
O3 P0 1.558428 1_554
O4 P0 1.531339 1_555
O5 P1 1.537706 1_555
O6 P2 1.540628 1_555
O7 P3 1.521767 1_555
O8 P3 1.553917 1_555
O9 P2 1.538873 1_554
O10 P2 1.579376 1_555
O11 P2 1.562635 1_555
O12 P4 1.534622 1_555
O13 P3 1.565051 1_555
O14 P3 1.593177 1_555
O15 P6 1.535212 1_555
O16 P5 1.550139 1_555
O17 P7 1.560317 1_555
O18 P5 1.545244 1_555
O19 P4 1.588648 1_555
O20 P10 1.583208 1_565
O21 P0 1.583769 1_545
O22 P7 1.539671 1_555
O23 P5 1.593878 1_555
O24 P6 1.593878 1_555
O25 P4 1.539671 1_555
O26 P11 1.583769 1_655
O27 P1 1.583208 1_455
O28 P7 1.588649 1_555
O29 P6 1.545244 1_555
O30 P4 1.560317 1_555
O31 P6 1.550139 1_555
O32 P5 1.535212 1_555
O33 P8 1.593177 1_555
O34 P8 1.565051 1_555
O35 P7 1.534622 1_555
O36 P9 1.562635 1_555
O37 P9 1.579376 1_555
O38 P9 1.538873 1_556
O39 P8 1.553917 1_555
O40 P8 1.521767 1_555
O41 P9 1.540628 1_555
O42 P10 1.537706 1_555
O43 P11 1.531339 1_555
O44 P11 1.558428 1_556
O45 P10 1.561341 1_555
O46 P10 1.545662 1_555
O47 P11 1.552607 1_555
