# generated using pymatgen
data_Mn6O5F7
_symmetry_space_group_name_H-M   'P 1'
_cell_length_a   5.15235000
_cell_length_b   5.76398281
_cell_length_c   14.60615934
_cell_angle_alpha   90.09155925
_cell_angle_beta   94.59800371
_cell_angle_gamma   90.09430377
_symmetry_Int_Tables_number   1
_chemical_formula_structural   Mn6O5F7
_chemical_formula_sum   'Mn12 O10 F14'
_cell_volume   432.37728429
_cell_formula_units_Z   2
loop_
 _symmetry_equiv_pos_site_id
 _symmetry_equiv_pos_as_xyz
  1  'x, y, z'
loop_
 _atom_site_type_symbol
 _atom_site_label
 _atom_site_symmetry_multiplicity
 _atom_site_fract_x
 _atom_site_fract_y
 _atom_site_fract_z
 _atom_site_occupancy
  Mn  Mn0  1  0.96409200  0.88256200  0.00590100  1
  Mn  Mn1  1  0.50199900  0.14143900  0.16462600  1
  Mn  Mn2  1  0.04827300  0.88526900  0.32645900  1
  Mn  Mn3  1  0.45279600  0.88796200  0.50482600  1
  Mn  Mn4  1  0.00960700  0.09920800  0.66628700  1
  Mn  Mn5  1  0.52585800  0.90543500  0.83617100  1
  Mn  Mn6  1  0.99851100  0.43805900  0.16431100  1
  Mn  Mn7  1  0.46414200  0.57580300  0.00580200  1
  Mn  Mn8  1  0.48241400  0.45261300  0.66403100  1
  Mn  Mn9  1  0.95980200  0.53283100  0.50219100  1
  Mn  Mn10  1  0.53597500  0.57947600  0.32085800  1
  Mn  Mn11  1  0.05506200  0.58808000  0.83862800  1
  O  O0  1  0.26960800  0.80843600  0.92142500  1
  O  O1  1  0.15427200  0.63891200  0.07479400  1
  O  O2  1  0.85085500  0.63619600  0.25792900  1
  O  O3  1  0.63245500  0.63327900  0.57022300  1
  O  O4  1  0.77162700  0.65394600  0.92782800  1
  O  O5  1  0.33844900  0.66676300  0.76240400  1
  O  O6  1  0.24751000  0.65549900  0.40287200  1
  O  O7  1  0.16883600  0.36236400  0.59694900  1
  O  O8  1  0.33213700  0.37879400  0.23132200  1
  O  O9  1  0.66460000  0.37910000  0.09518100  1
  F  F0  1  0.37756300  0.89513600  0.24743200  1
  F  F1  1  0.64049400  0.89169900  0.08796300  1
  F  F2  1  0.13179300  0.84641400  0.57687300  1
  F  F3  1  0.73915500  0.83049100  0.41251600  1
  F  F4  1  0.83709400  0.89192500  0.76017100  1
  F  F5  1  0.26365900  0.34381800  0.91673900  1
  F  F6  1  0.72560800  0.35928800  0.40795900  1
  F  F7  1  0.83472000  0.40378500  0.74325900  1
  F  F8  1  0.23732200  0.09934700  0.41821900  1
  F  F9  1  0.13476400  0.12785700  0.08475900  1
  F  F10  1  0.36856300  0.16748500  0.74579000  1
  F  F11  1  0.65524000  0.13106900  0.58649800  1
  F  F12  1  0.75457200  0.10024900  0.92392200  1
  F  F13  1  0.87057100  0.12941100  0.24688400  1
loop_
_geom_bond_atom_site_label_1
_geom_bond_atom_site_label_2
_geom_bond_distance
_geom_bond_site_symmetry_2
Mn0 O1 1.948333 1_655
Mn0 O4 1.956983 1_554
Mn0 O0 2.120091 1_654
Mn1 O8 1.929525 1_555
Mn1 O9 1.934990 1_555
Mn2 O6 1.969513 1_555
Mn2 O2 1.981164 1_455
Mn3 O3 1.947164 1_555
Mn3 O6 2.206382 1_555
Mn4 O7 2.033110 1_555
Mn5 O5 1.951902 1_555
Mn5 O0 1.967168 1_555
Mn5 O4 2.288554 1_555
Mn6 O8 1.939783 1_655
Mn6 O9 1.952783 1_555
Mn6 O1 1.965689 1_655
Mn6 O2 1.979271 1_555
Mn7 O9 1.961866 1_555
Mn7 O1 1.988840 1_555
Mn7 O0 2.033012 1_554
Mn7 O4 2.073272 1_554
Mn8 O7 1.892828 1_555
Mn8 O3 1.931622 1_555
Mn8 O5 2.075237 1_555
Mn9 O7 1.951881 1_655
Mn9 O3 2.106502 1_555
Mn9 O6 2.268568 1_655
Mn10 O2 1.955022 1_555
Mn10 O8 1.980472 1_555
Mn10 O6 2.030253 1_555
Mn11 O5 1.958876 1_555
Mn11 O0 2.018372 1_555
Mn11 O4 2.068704 1_455
F0 Mn1 2.004051 1_565
F0 Mn2 2.127906 1_555
F0 Mn10 2.235527 1_555
F0 F1 2.786897 1_555
F0 O8 2.806666 1_565
F1 Mn1 1.990357 1_565
F1 Mn0 2.130678 1_555
F1 Mn7 2.322470 1_555
F1 F12 2.786395 1_564
F2 Mn3 2.044199 1_555
F2 Mn4 2.086588 1_565
F2 Mn9 2.252912 1_455
F2 O7 2.811089 1_555
F2 F8 2.828658 1_565
F2 O3 2.843752 1_455
F3 Mn3 2.103242 1_555
F3 Mn2 2.129993 1_655
F3 Mn10 2.178463 1_555
F3 Mn9 2.393019 1_555
F4 Mn5 2.023703 1_555
F4 Mn4 2.072467 1_665
F4 Mn11 2.334150 1_655
F4 F7 2.823981 1_555
F5 Mn11 2.062169 1_555
F5 Mn7 2.078871 1_556
F5 F9 2.877785 1_556
F6 Mn10 1.998468 1_555
F6 Mn9 2.018995 1_555
F7 Mn11 2.023714 1_655
F7 Mn8 2.092669 1_555
F7 Mn4 2.306358 1_655
F8 Mn2 2.012246 1_545
F8 Mn3 2.025219 1_545
F8 O6 2.568767 1_545
F9 Mn0 1.981744 1_445
F9 Mn1 2.142996 1_555
F9 Mn6 2.273363 1_455
F10 Mn5 2.125997 1_545
F10 Mn4 2.139085 1_555
F10 Mn8 2.141633 1_555
F10 F7 2.762025 1_555
F10 F5 2.787436 1_555
F10 F11 2.861727 1_555
F11 Mn3 2.065168 1_545
F11 Mn4 2.094319 1_655
F11 Mn8 2.381340 1_555
F11 O7 2.855348 1_555
F12 Mn0 1.993872 1_546
F12 Mn5 2.010281 1_545
F12 F4 2.738388 1_545
F12 F5 2.889511 1_555
F13 Mn2 2.002086 1_645
F13 Mn1 2.165522 1_555
F13 Mn6 2.276972 1_555
F13 O8 2.801776 1_655
