# generated using pymatgen
data_Ba(BRh)2
_symmetry_space_group_name_H-M   'P 1'
_cell_length_a   7.83038679
_cell_length_b   7.83038678
_cell_length_c   12.74864158
_cell_angle_alpha   107.88494079
_cell_angle_beta   107.88494582
_cell_angle_gamma   90.00000648
_symmetry_Int_Tables_number   1
_chemical_formula_structural   Ba(BRh)2
_chemical_formula_sum   'Ba8 B16 Rh16'
_cell_volume   704.10935666
_cell_formula_units_Z   8
loop_
 _symmetry_equiv_pos_site_id
 _symmetry_equiv_pos_as_xyz
  1  'x, y, z'
loop_
 _atom_site_type_symbol
 _atom_site_label
 _atom_site_symmetry_multiplicity
 _atom_site_fract_x
 _atom_site_fract_y
 _atom_site_fract_z
 _atom_site_occupancy
  Ba  Ba0_0  1  0.00000000  0.00000000  0.00000000  1
  Ba  Ba0_1  1  0.00000000  0.00000000  0.50000000  1
  Ba  Ba0_2  1  0.00000000  0.50000000  0.00000000  1
  Ba  Ba0_3  1  0.00000000  0.50000000  0.50000000  1
  Ba  Ba0_4  1  0.50000000  0.00000000  0.00000000  1
  Ba  Ba0_5  1  0.50000000  0.00000000  0.50000000  1
  Ba  Ba0_6  1  0.50000000  0.50000000  0.00000000  1
  Ba  Ba0_7  1  0.50000000  0.50000000  0.50000000  1
  B  B0_0  1  0.34160064  0.34160063  0.18320077  1
  B  B0_1  1  0.34160064  0.34160063  0.68320077  1
  B  B0_2  1  0.34160063  0.84160064  0.18320077  1
  B  B0_3  1  0.34160063  0.84160064  0.68320077  1
  B  B0_4  1  0.84160064  0.34160064  0.18320078  1
  B  B0_5  1  0.84160064  0.34160063  0.68320077  1
  B  B0_6  1  0.84160064  0.84160064  0.18320077  1
  B  B0_7  1  0.84160064  0.84160064  0.68320077  1
  B  B1_0  1  0.15839937  0.15839937  0.31679923  1
  B  B1_1  1  0.15839937  0.15839936  0.81679923  1
  B  B1_2  1  0.15839936  0.65839936  0.31679923  1
  B  B1_3  1  0.15839936  0.65839936  0.81679922  1
  B  B1_4  1  0.65839937  0.15839937  0.31679923  1
  B  B1_5  1  0.65839936  0.15839936  0.81679923  1
  B  B1_6  1  0.65839937  0.65839936  0.31679922  1
  B  B1_7  1  0.65839936  0.65839936  0.81679922  1
  Rh  Rh0_0  1  0.12500000  0.37500000  0.25000000  1
  Rh  Rh0_1  1  0.12500000  0.37500000  0.75000000  1
  Rh  Rh0_2  1  0.12500000  0.87500000  0.25000000  1
  Rh  Rh0_3  1  0.12500000  0.87500000  0.75000000  1
  Rh  Rh0_4  1  0.62500000  0.37500000  0.25000000  1
  Rh  Rh0_5  1  0.62500000  0.37500000  0.75000000  1
  Rh  Rh0_6  1  0.62500000  0.87500000  0.25000000  1
  Rh  Rh0_7  1  0.62500000  0.87500000  0.75000000  1
  Rh  Rh1_0  1  0.37500000  0.12500000  0.25000000  1
  Rh  Rh1_1  1  0.37500000  0.12500000  0.75000000  1
  Rh  Rh1_2  1  0.37500000  0.62500000  0.25000000  1
  Rh  Rh1_3  1  0.37500000  0.62500000  0.75000000  1
  Rh  Rh1_4  1  0.87500000  0.12500000  0.25000000  1
  Rh  Rh1_5  1  0.87500000  0.12500000  0.75000000  1
  Rh  Rh1_6  1  0.87500000  0.62500000  0.25000000  1
  Rh  Rh1_7  1  0.87500000  0.62500000  0.75000000  1
loop_
_geom_bond_atom_site_label_1
_geom_bond_atom_site_label_2
_geom_bond_distance
_geom_bond_site_symmetry_2
Ba0_0 Rh0_2 3.474778 1_545
Ba0_0 Rh1_5 3.474778 1_454
Ba0_0 Rh0_3 3.474778 1_544
Ba0_0 Rh1_4 3.474778 1_455
Ba0_0 Rh1_0 3.474779 1_555
Ba0_0 Rh0_7 3.474779 1_444
Ba0_0 Rh0_0 3.474779 1_555
Ba0_0 Rh1_7 3.474779 1_444
Ba0_0 Ba0_2 3.915193 1_545
Ba0_0 Ba0_2 3.915193 1_555
Ba0_0 Ba0_4 3.915193 1_555
Ba0_0 Ba0_4 3.915193 1_455
Ba0_1 Rh1_4 3.474778 1_455
Ba0_1 Rh0_3 3.474778 1_545
Ba0_1 Rh1_5 3.474778 1_455
Ba0_1 Rh0_2 3.474778 1_545
Ba0_1 Rh1_1 3.474779 1_555
Ba0_1 Rh0_6 3.474779 1_445
Ba0_1 Rh1_6 3.474779 1_445
Ba0_1 Rh0_1 3.474779 1_555
Ba0_1 Ba0_3 3.915193 1_545
Ba0_1 Ba0_3 3.915193 1_555
Ba0_1 Ba0_5 3.915193 1_455
Ba0_1 Ba0_5 3.915193 1_555
Ba0_2 Rh0_0 3.474778 1_555
Ba0_2 Rh1_7 3.474778 1_454
Ba0_2 Rh1_6 3.474778 1_455
Ba0_2 Rh0_1 3.474778 1_554
Ba0_2 Rh1_2 3.474779 1_555
Ba0_2 Rh0_5 3.474779 1_454
Ba0_2 Rh0_2 3.474779 1_555
Ba0_2 Rh1_5 3.474779 1_454
Ba0_2 Ba0_6 3.915193 1_555
Ba0_2 Ba0_6 3.915193 1_455
Ba0_3 Rh1_6 3.474778 1_455
Ba0_3 Rh0_1 3.474778 1_555
Ba0_3 Rh1_7 3.474778 1_455
Ba0_3 Rh0_0 3.474778 1_555
Ba0_3 Rh1_3 3.474779 1_555
Ba0_3 Rh0_4 3.474779 1_455
Ba0_3 Rh1_4 3.474779 1_455
Ba0_3 Rh0_3 3.474779 1_555
Ba0_3 Ba0_7 3.915193 1_555
Ba0_3 Ba0_7 3.915193 1_455
Ba0_4 Rh0_6 3.474778 1_545
Ba0_4 Rh1_1 3.474778 1_554
Ba0_4 Rh0_7 3.474778 1_544
Ba0_4 Rh1_0 3.474778 1_555
Ba0_4 Rh1_4 3.474779 1_555
Ba0_4 Rh0_3 3.474779 1_544
Ba0_4 Rh1_3 3.474779 1_544
Ba0_4 Rh0_4 3.474779 1_555
Ba0_4 Ba0_6 3.915193 1_555
Ba0_4 Ba0_6 3.915193 1_545
Ba0_5 Rh1_0 3.474778 1_555
Ba0_5 Rh0_7 3.474778 1_545
Ba0_5 Rh1_1 3.474778 1_555
Ba0_5 Rh0_6 3.474778 1_545
Ba0_5 Rh1_5 3.474779 1_555
Ba0_5 Rh0_2 3.474779 1_545
Ba0_5 Rh1_2 3.474779 1_545
Ba0_5 Rh0_5 3.474779 1_555
Ba0_5 Ba0_7 3.915193 1_555
Ba0_5 Ba0_7 3.915193 1_545
Ba0_6 Rh0_4 3.474778 1_555
Ba0_6 Rh1_3 3.474778 1_554
Ba0_6 Rh1_2 3.474778 1_555
Ba0_6 Rh0_5 3.474778 1_554
Ba0_6 Rh0_1 3.474779 1_554
Ba0_6 Rh1_6 3.474779 1_555
Ba0_6 Rh0_6 3.474779 1_555
Ba0_6 Rh1_1 3.474779 1_554
Ba0_7 Rh1_2 3.474778 1_555
Ba0_7 Rh0_5 3.474778 1_555
Ba0_7 Rh1_3 3.474778 1_555
Ba0_7 Rh0_4 3.474778 1_555
Ba0_7 Rh1_7 3.474779 1_555
Ba0_7 Rh0_0 3.474779 1_555
Ba0_7 Rh1_0 3.474779 1_555
Ba0_7 Rh0_7 3.474779 1_555
B0_0 Rh0_4 2.102523 1_555
B0_0 Rh1_2 2.102523 1_555
B0_0 Rh1_0 2.102526 1_555
B0_0 Rh0_0 2.102526 1_555
B0_0 Ba0_6 3.477104 1_555
B0_0 Ba0_2 3.477107 1_555
B0_0 Ba0_4 3.477107 1_555
B0_0 Ba0_0 3.477109 1_555
B0_1 Rh0_5 2.102523 1_555
B0_1 Rh1_3 2.102523 1_555
B0_1 Rh1_1 2.102526 1_555
B0_1 Rh0_1 2.102526 1_555
B0_1 Ba0_7 3.477104 1_555
B0_1 Ba0_3 3.477107 1_555
B0_1 Ba0_5 3.477107 1_555
B0_1 Ba0_1 3.477109 1_555
B0_2 Rh0_6 2.102523 1_555
B0_2 Rh1_0 2.102523 1_565
B0_2 Rh1_2 2.102526 1_555
B0_2 Rh0_2 2.102526 1_555
B0_2 Ba0_4 3.477104 1_565
B0_2 Ba0_0 3.477107 1_565
B0_2 Ba0_6 3.477107 1_555
B0_2 Ba0_2 3.477109 1_555
B0_3 Rh0_7 2.102523 1_555
B0_3 Rh1_1 2.102523 1_565
B0_3 Rh1_3 2.102526 1_555
B0_3 Rh0_3 2.102526 1_555
B0_3 Ba0_5 3.477104 1_565
B0_3 Ba0_1 3.477107 1_565
B0_3 Ba0_7 3.477107 1_555
B0_3 Ba0_3 3.477109 1_555
B0_4 Rh0_0 2.102523 1_655
B0_4 Rh1_6 2.102523 1_555
B0_4 Rh1_4 2.102526 1_555
B0_4 Rh0_4 2.102526 1_555
B0_4 Ba0_2 3.477104 1_655
B0_4 Ba0_6 3.477107 1_555
B0_4 Ba0_0 3.477107 1_655
B0_4 Ba0_4 3.477109 1_555
B0_5 Rh0_1 2.102523 1_655
B0_5 Rh1_7 2.102523 1_555
B0_5 Rh1_5 2.102526 1_555
B0_5 Rh0_5 2.102526 1_555
B0_5 Ba0_3 3.477104 1_655
B0_5 Ba0_7 3.477107 1_555
B0_5 Ba0_1 3.477107 1_655
B0_5 Ba0_5 3.477109 1_555
B0_6 Rh0_2 2.102523 1_655
B0_6 Rh1_4 2.102523 1_565
B0_6 Rh1_6 2.102526 1_555
B0_6 Rh0_6 2.102526 1_555
B0_6 Ba0_0 3.477104 1_665
B0_6 Ba0_4 3.477107 1_565
B0_6 Ba0_2 3.477107 1_655
B0_6 Ba0_6 3.477109 1_555
B0_7 Rh0_3 2.102523 1_655
B0_7 Rh1_5 2.102523 1_565
B0_7 Rh1_7 2.102526 1_555
B0_7 Rh0_7 2.102526 1_555
B0_7 Ba0_1 3.477104 1_665
B0_7 Ba0_5 3.477107 1_565
B0_7 Ba0_3 3.477107 1_655
B0_7 Ba0_7 3.477109 1_555
B1_0 Rh1_4 2.102523 1_455
B1_0 Rh0_2 2.102523 1_545
B1_0 Rh0_0 2.102526 1_555
B1_0 Rh1_0 2.102526 1_555
B1_0 Ba0_1 3.477104 1_555
B1_0 Ba0_5 3.477107 1_555
B1_0 Ba0_3 3.477107 1_555
B1_0 Ba0_7 3.477109 1_555
B1_1 Rh1_5 2.102523 1_455
B1_1 Rh0_3 2.102523 1_545
B1_1 Rh0_1 2.102526 1_555
B1_1 Rh1_1 2.102526 1_555
B1_1 Ba0_0 3.477104 1_556
B1_1 Ba0_4 3.477107 1_556
B1_1 Ba0_2 3.477107 1_556
B1_1 Ba0_6 3.477109 1_556
B1_2 Rh1_6 2.102523 1_455
B1_2 Rh0_0 2.102523 1_555
B1_2 Rh0_2 2.102526 1_555
B1_2 Rh1_2 2.102526 1_555
B1_2 Ba0_3 3.477104 1_555
B1_2 Ba0_7 3.477107 1_555
B1_2 Ba0_1 3.477107 1_565
B1_2 Ba0_5 3.477109 1_565
B1_3 Rh1_7 2.102523 1_455
B1_3 Rh0_1 2.102523 1_555
B1_3 Rh0_3 2.102526 1_555
B1_3 Rh1_3 2.102526 1_555
B1_3 Ba0_2 3.477104 1_556
B1_3 Ba0_6 3.477107 1_556
B1_3 Ba0_0 3.477107 1_566
B1_3 Ba0_4 3.477109 1_566
B1_4 Rh1_0 2.102523 1_555
B1_4 Rh0_6 2.102523 1_545
B1_4 Rh0_4 2.102526 1_555
B1_4 Rh1_4 2.102526 1_555
B1_4 Ba0_5 3.477104 1_555
B1_4 Ba0_1 3.477107 1_655
B1_4 Ba0_7 3.477107 1_555
B1_4 Ba0_3 3.477109 1_655
B1_5 Rh1_1 2.102523 1_555
B1_5 Rh0_7 2.102523 1_545
B1_5 Rh0_5 2.102526 1_555
B1_5 Rh1_5 2.102526 1_555
B1_5 Ba0_4 3.477104 1_556
B1_5 Ba0_0 3.477107 1_656
B1_5 Ba0_6 3.477107 1_556
B1_5 Ba0_2 3.477109 1_656
B1_6 Rh1_2 2.102523 1_555
B1_6 Rh0_4 2.102523 1_555
B1_6 Rh0_6 2.102526 1_555
B1_6 Rh1_6 2.102526 1_555
B1_6 Ba0_7 3.477104 1_555
B1_6 Ba0_3 3.477107 1_655
B1_6 Ba0_5 3.477107 1_565
B1_6 Ba0_1 3.477109 1_665
B1_7 Rh1_3 2.102523 1_555
B1_7 Rh0_5 2.102523 1_555
B1_7 Rh0_7 2.102526 1_555
B1_7 Rh1_7 2.102526 1_555
B1_7 Ba0_6 3.477104 1_556
B1_7 Ba0_2 3.477107 1_656
B1_7 Ba0_4 3.477107 1_566
B1_7 Ba0_0 3.477109 1_666
