# generated using pymatgen
data_S2N3O8
_symmetry_space_group_name_H-M   'P 1'
_cell_length_a   5.86097000
_cell_length_b   10.22178681
_cell_length_c   15.71525221
_cell_angle_alpha   102.36208125
_cell_angle_beta   90.55293771
_cell_angle_gamma   90.20870674
_symmetry_Int_Tables_number   1
_chemical_formula_structural   S2N3O8
_chemical_formula_sum   'S8 N12 O32'
_cell_volume   919.60640151
_cell_formula_units_Z   4
loop_
 _symmetry_equiv_pos_site_id
 _symmetry_equiv_pos_as_xyz
  1  'x, y, z'
loop_
 _atom_site_type_symbol
 _atom_site_label
 _atom_site_symmetry_multiplicity
 _atom_site_fract_x
 _atom_site_fract_y
 _atom_site_fract_z
 _atom_site_occupancy
  S  S0  1  0.28373000  0.04129600  0.39687200  1
  S  S1  1  0.78606900  0.03881900  0.89236800  1
  S  S2  1  0.72069000  0.95956000  0.61085800  1
  S  S3  1  0.22667800  0.54058300  0.89019700  1
  S  S4  1  0.28384900  0.45911400  0.61332200  1
  S  S5  1  0.71888900  0.53907000  0.39203000  1
  S  S6  1  0.78635700  0.45971300  0.10994200  1
  S  S7  1  0.22435400  0.95719200  0.11301800  1
  N  N0  1  0.77312500  0.84406000  0.30532700  1
  N  N1  1  0.27279100  0.84764600  0.80374800  1
  N  N2  1  0.72860700  0.75033500  0.00042300  1
  N  N3  1  0.77200200  0.25091500  0.49987000  1
  N  N4  1  0.77666200  0.65470400  0.69847000  1
  N  N5  1  0.27909400  0.64617600  0.20045700  1
  N  N6  1  0.27861200  0.25228100  0.00046900  1
  N  N7  1  0.72271900  0.15216400  0.20053600  1
  N  N8  1  0.22529000  0.34834800  0.30361500  1
  N  N9  1  0.72911400  0.34624000  0.80521500  1
  N  N10  1  0.21995300  0.14606400  0.70149000  1
  N  N11  1  0.22253000  0.75175500  0.50116200  1
  O  O0  1  0.27221200  0.05772200  0.49257600  1
  O  O1  1  0.96154700  0.11835600  0.85845400  1
  O  O2  1  0.80780500  0.05810000  0.98812100  1
  O  O3  1  0.70064800  0.56133100  0.48803900  1
  O  O4  1  0.31064400  0.43768500  0.51774300  1
  O  O5  1  0.01586200  0.58091400  0.85020100  1
  O  O6  1  0.50280800  0.08721300  0.36665700  1
  O  O7  1  0.20771500  0.56686700  0.98606600  1
  O  O8  1  0.25121100  0.89706000  0.35576800  1
  O  O9  1  0.69082400  0.93956800  0.51509500  1
  O  O10  1  0.81542000  0.44439100  0.01492400  1
  O  O11  1  0.55368500  0.08189100  0.87246600  1
  O  O12  1  0.09403500  0.11878100  0.36797000  1
  O  O13  1  0.95670000  0.37834100  0.14541400  1
  O  O14  1  0.42251000  0.62055900  0.86933400  1
  O  O15  1  0.26199400  0.10125600  0.15318600  1
  O  O16  1  0.81522700  0.89582700  0.84961000  1
  O  O17  1  0.24726200  0.60273200  0.65165000  1
  O  O18  1  0.95634100  0.91610100  0.62827700  1
  O  O19  1  0.49011100  0.41438300  0.65375100  1
  O  O20  1  0.08362900  0.37944400  0.63023600  1
  O  O21  1  0.26505200  0.39626000  0.85401400  1
  O  O22  1  0.54320600  0.61774600  0.35733200  1
  O  O23  1  0.95218000  0.58104200  0.37223600  1
  O  O24  1  0.54980900  0.41582200  0.12481000  1
  O  O25  1  0.01573600  0.91366200  0.15203900  1
  O  O26  1  0.19777900  0.93651800  0.01727400  1
  O  O27  1  0.68809800  0.39543900  0.35050700  1
  O  O28  1  0.42316900  0.87719200  0.13074900  1
  O  O29  1  0.54766700  0.87922000  0.64694200  1
  O  O30  1  0.81266300  0.60212800  0.15567200  1
  O  O31  1  0.69293500  0.10261100  0.65469600  1
loop_
_geom_bond_atom_site_label_1
_geom_bond_atom_site_label_2
_geom_bond_distance
_geom_bond_site_symmetry_2
N0 O8 2.921562 1_655
N0 O22 2.939966 1_555
N0 O6 2.940912 1_565
N0 O25 3.020553 1_655
N0 O30 3.037261 1_555
N0 O8 3.186512 1_555
N0 O23 3.262630 1_555
N0 O9 3.272486 1_555
N0 O12 3.336834 1_665
N0 O28 3.484669 1_555
N1 O16 2.801577 1_455
N1 O14 2.870936 1_555
N1 O11 2.905087 1_565
N1 O29 3.030758 1_555
N1 O17 3.071029 1_555
N1 O16 3.265228 1_555
N1 O1 3.282115 1_465
N1 O26 3.317354 1_556
N1 O5 3.328325 1_555
N1 O18 3.502954 1_455
N2 O14 2.821957 1_554
N2 O28 2.833971 1_555
N2 O25 3.081443 1_655
N2 O16 3.100581 1_554
N2 O5 3.123178 1_654
N2 O30 3.170977 1_555
N2 O2 3.225071 1_564
N2 O10 3.225723 1_555
N2 O26 3.314430 1_655
N2 O7 3.364880 1_654
N2 O7 3.556984 1_554
N3 O20 2.831439 1_655
N3 O6 2.844117 1_555
N3 O12 2.928928 1_655
N3 O27 3.066220 1_555
N3 O19 3.120378 1_555
N3 O31 3.166840 1_555
N3 O3 3.246259 1_555
N3 O9 3.275557 1_545
N3 O4 3.295141 1_555
N3 O0 3.529814 1_655
N4 O17 2.883331 1_655
N4 O29 2.919086 1_555
N4 O19 2.925220 1_555
N4 O5 2.988886 1_655
N4 O16 3.040791 1_555
N4 O17 3.198049 1_555
N4 O3 3.265354 1_555
N4 O18 3.275525 1_555
N4 O20 3.329501 1_655
N4 O14 3.484819 1_555
N5 O30 2.826589 1_455
N5 O24 2.887920 1_555
N5 O28 2.932622 1_555
N5 O22 2.965610 1_555
N5 O8 3.145031 1_555
N5 O30 3.224082 1_555
N5 O13 3.275769 1_455
N5 O7 3.314303 1_554
N5 O25 3.366914 1_555
N5 O23 3.501734 1_455
N6 O24 2.767905 1_555
N6 O11 2.874384 1_554
N6 O1 2.983541 1_454
N6 O21 2.986172 1_554
N6 O13 3.041804 1_455
N6 O15 3.121277 1_555
N6 O7 3.299052 1_554
N6 O26 3.326899 1_545
N6 O10 3.337271 1_455
N6 O2 3.372898 1_454
N7 O15 2.810921 1_555
N7 O25 2.955305 1_645
N7 O13 2.972104 1_555
N7 O27 3.046801 1_555
N7 O6 3.117415 1_555
N7 O15 3.271993 1_655
N7 O28 3.285146 1_545
N7 O2 3.313273 1_554
N7 O24 3.328133 1_555
N7 O12 3.472104 1_655
N8 O27 2.816461 1_555
N8 O12 2.852915 1_555
N8 O23 2.888842 1_455
N8 O13 3.001244 1_455
N8 O15 3.077557 1_555
N8 O27 3.254463 1_455
N8 O22 3.271763 1_555
N8 O4 3.325104 1_555
N8 O6 3.447454 1_555
N8 O24 3.593413 1_555
N9 O21 2.851253 1_555
N9 O5 2.880979 1_655
N9 O19 2.960718 1_555
N9 O1 2.969418 1_555
N9 O31 3.050606 1_555
N9 O21 3.238837 1_655
N9 O10 3.266803 1_556
N9 O11 3.270947 1_555
N9 O14 3.311946 1_555
N9 O20 3.535369 1_655
N10 O18 2.831530 1_445
N10 O31 2.886391 1_555
N10 O20 2.953572 1_555
N10 O1 2.970998 1_455
N10 O21 3.116710 1_555
N10 O31 3.175734 1_455
N10 O0 3.231134 1_555
N10 O29 3.306467 1_545
N10 O19 3.385956 1_555
N10 O11 3.484018 1_555
N11 O18 2.808739 1_455
N11 O23 2.839865 1_455
N11 O8 2.985598 1_555
N11 O29 3.032669 1_555
N11 O22 3.048424 1_555
N11 O17 3.077648 1_555
N11 O0 3.171632 1_565
N11 O4 3.317930 1_555
N11 O9 3.322151 1_555
N11 O3 3.400415 1_555
N11 O3 3.599961 1_455
O0 S0 1.479431 1_555
O1 S1 1.480815 1_555
O2 S1 1.479383 1_555
O3 S5 1.481887 1_555
O4 S4 1.480783 1_555
O5 S3 1.480328 1_555
O6 S0 1.482311 1_555
O7 S3 1.478015 1_555
O8 S0 1.488318 1_565
O9 S2 1.483313 1_555
O10 S6 1.479274 1_555
O11 S1 1.483847 1_555
O12 S0 1.490105 1_555
O13 S6 1.480940 1_555
O14 S3 1.486054 1_555
O15 S7 1.487479 1_545
O16 S1 1.483442 1_565
O17 S4 1.479892 1_555
O18 S2 1.493008 1_555
O19 S4 1.479104 1_555
O20 S4 1.484136 1_555
O21 S3 1.481875 1_555
O22 S5 1.478946 1_555
O23 S5 1.487094 1_555
O24 S6 1.491506 1_555
O25 S7 1.482017 1_555
O26 S7 1.480524 1_555
O27 S5 1.483063 1_555
O28 S7 1.484046 1_555
O29 S2 1.492903 1_555
O30 S6 1.485828 1_555
O31 S2 1.487205 1_545
