# generated using pymatgen
data_Li4Mn3Nb3(FeO8)2
_symmetry_space_group_name_H-M   'P 1'
_cell_length_a   6.11725800
_cell_length_b   6.24356583
_cell_length_c   9.80691285
_cell_angle_alpha   92.16940078
_cell_angle_beta   90.50900713
_cell_angle_gamma   118.88232461
_symmetry_Int_Tables_number   1
_chemical_formula_structural   Li4Mn3Nb3(FeO8)2
_chemical_formula_sum   'Li4 Mn3 Nb3 Fe2 O16'
_cell_volume   327.57705110
_cell_formula_units_Z   1
loop_
 _symmetry_equiv_pos_site_id
 _symmetry_equiv_pos_as_xyz
  1  'x, y, z'
loop_
 _atom_site_type_symbol
 _atom_site_label
 _atom_site_symmetry_multiplicity
 _atom_site_fract_x
 _atom_site_fract_y
 _atom_site_fract_z
 _atom_site_occupancy
  Li  Li0  1  0.67700700  0.34781600  0.09685300  1
  Li  Li1  1  0.99564300  0.99635400  0.99743400  1
  Li  Li2  1  0.01404400  0.03305700  0.51395800  1
  Li  Li3  1  0.34447900  0.67726800  0.61309900  1
  Mn  Mn0  1  0.83293800  0.17084500  0.78993800  1
  Mn  Mn1  1  0.33566800  0.15847400  0.79151400  1
  Mn  Mn2  1  0.17366600  0.34394200  0.28735400  1
  Nb  Nb0  1  0.82184200  0.65374100  0.78048700  1
  Nb  Nb1  1  0.66368600  0.83502800  0.28332900  1
  Nb  Nb2  1  0.16903800  0.83470500  0.28610100  1
  Fe  Fe0  1  0.65154000  0.29283100  0.52612500  1
  Fe  Fe1  1  0.31270200  0.64007300  0.99499400  1
  O  O0  1  0.82201800  0.15158800  0.40076900  1
  O  O1  1  0.54272000  0.03989900  0.65968100  1
  O  O2  1  0.69278000  0.34808700  0.89426900  1
  O  O3  1  0.97181600  0.98511000  0.69758200  1
  O  O4  1  0.99215000  0.98771100  0.18314200  1
  O  O5  1  0.32857100  0.14762500  0.40551000  1
  O  O6  1  0.96475600  0.49857100  0.64980000  1
  O  O7  1  0.53069700  0.48614500  0.64841900  1
  O  O8  1  0.13803900  0.31245300  0.90944800  1
  O  O9  1  0.85076900  0.69928300  0.39211700  1
  O  O10  1  0.49756500  0.54576400  0.15738400  1
  O  O11  1  0.04769900  0.54717500  0.15968500  1
  O  O12  1  0.35483700  0.70268200  0.39851900  1
  O  O13  1  0.64595400  0.78721000  0.90313700  1
  O  O14  1  0.48285500  0.97290400  0.16986000  1
  O  O15  1  0.14481600  0.80365700  0.90165400  1
loop_
_geom_bond_atom_site_label_1
_geom_bond_atom_site_label_2
_geom_bond_distance
_geom_bond_site_symmetry_2
Li0 O2 1.989946 1_554
Li0 O11 2.064355 1_655
Li0 O10 2.085989 1_555
Li0 O14 2.204275 1_545
Li1 O4 1.824072 1_556
Li1 O8 1.969748 1_665
Li1 O15 2.037829 1_655
Li1 O13 2.076357 1_555
Li2 O3 1.836721 1_445
Li2 O0 2.009609 1_455
Li2 O5 2.027104 1_555
Li2 O9 2.132536 1_445
Li3 O1 2.016179 1_565
Li3 O7 2.044258 1_555
Li3 O6 2.076467 1_455
Li3 O12 2.115536 1_555
Mn0 O3 1.942352 1_545
Mn0 O2 1.962909 1_555
Mn0 O8 1.981749 1_655
Mn0 O1 1.982558 1_555
Mn0 O6 2.316142 1_555
Mn0 O13 2.419745 1_545
Mn1 O3 2.129555 1_445
Mn1 O2 2.135763 1_555
Mn1 O1 2.164794 1_555
Mn1 O8 2.187895 1_555
Mn1 O15 2.267697 1_545
Mn1 O7 2.338239 1_555
Mn2 O4 2.155522 1_445
Mn2 O11 2.195263 1_555
Mn2 O12 2.197551 1_555
Mn2 O10 2.211983 1_555
Mn2 O5 2.225545 1_555
Mn2 O0 2.225924 1_455
Nb0 O7 2.000129 1_555
Nb0 O6 2.022275 1_555
Nb0 O3 2.022415 1_555
Nb0 O13 2.027839 1_555
Nb0 O2 2.057112 1_555
Nb0 O15 2.068619 1_655
Nb1 O10 1.963636 1_555
Nb1 O12 2.031965 1_555
Nb1 O0 2.032128 1_565
Nb1 O9 2.037160 1_555
Nb1 O4 2.041328 1_555
Nb1 O14 2.042921 1_555
Nb2 O11 1.959242 1_555
Nb2 O9 2.024521 1_455
Nb2 O5 2.026178 1_565
Nb2 O12 2.034283 1_555
Nb2 O4 2.038428 1_455
Nb2 O14 2.059731 1_555
Fe0 O1 1.951681 1_555
Fe0 O0 2.050769 1_555
Fe0 O7 2.051752 1_555
Fe0 O6 2.062867 1_555
Fe0 O5 2.066737 1_555
Fe0 O9 2.635461 1_555
Fe1 O8 1.942273 1_555
Fe1 O15 2.000791 1_555
Fe1 O13 2.024209 1_555
Fe1 O11 2.186794 1_556
Fe1 O10 2.200907 1_556
Fe1 O14 2.439585 1_556
