# generated using pymatgen
data_Fe3Co(PO4)4
_symmetry_space_group_name_H-M   'P 1'
_cell_length_a   5.89075500
_cell_length_b   4.86004600
_cell_length_c   9.93831967
_cell_angle_alpha   89.87494254
_cell_angle_beta   90.00000000
_cell_angle_gamma   90.00000000
_symmetry_Int_Tables_number   1
_chemical_formula_structural   Fe3Co(PO4)4
_chemical_formula_sum   'Fe3 Co1 P4 O16'
_cell_volume   284.52685793
_cell_formula_units_Z   1
loop_
 _symmetry_equiv_pos_site_id
 _symmetry_equiv_pos_as_xyz
  1  'x, y, z'
loop_
 _atom_site_type_symbol
 _atom_site_label
 _atom_site_symmetry_multiplicity
 _atom_site_fract_x
 _atom_site_fract_y
 _atom_site_fract_z
 _atom_site_occupancy
  Fe  Fe0  1  0.00000000  0.46835000  0.77344100  1
  Fe  Fe1  1  0.50000000  0.53721400  0.22375800  1
  Fe  Fe2  1  0.50000000  0.96760800  0.72522300  1
  Co  Co0  1  0.00000000  0.06683600  0.28416300  1
  P  P0  1  0.50000000  0.07505200  0.40377900  1
  P  P1  1  0.50000000  0.41571700  0.90343400  1
  P  P2  1  0.00000000  0.58674500  0.10277200  1
  P  P3  1  0.00000000  0.91863100  0.59240700  1
  O  O0  1  0.50000000  0.15440600  0.55195000  1
  O  O1  1  0.29794700  0.22370000  0.32662200  1
  O  O2  1  0.70205300  0.22370000  0.32662200  1
  O  O3  1  0.00000000  0.22847300  0.61567000  1
  O  O4  1  0.00000000  0.27036300  0.12123500  1
  O  O5  1  0.29692200  0.26985100  0.82772100  1
  O  O6  1  0.70307800  0.26985100  0.82772100  1
  O  O7  1  0.50000000  0.34593400  0.05249300  1
  O  O8  1  0.00000000  0.64075100  0.95054300  1
  O  O9  1  0.79463600  0.72960400  0.17390100  1
  O  O10  1  0.20536400  0.72960400  0.17390100  1
  O  O11  1  0.50000000  0.72580200  0.87985600  1
  O  O12  1  0.50000000  0.76558800  0.38450700  1
  O  O13  1  0.79724000  0.77076500  0.66781500  1
  O  O14  1  0.20276000  0.77076500  0.66781500  1
  O  O15  1  0.00000000  0.84468800  0.44265100  1
loop_
_geom_bond_atom_site_label_1
_geom_bond_atom_site_label_2
_geom_bond_distance
_geom_bond_site_symmetry_2
Fe0 O8 1.951003 1_555
Fe0 O3 1.955929 1_555
Fe0 O5 2.068512 1_555
Fe0 O6 2.068512 1_455
Fe0 O13 2.163795 1_455
Fe0 O14 2.163795 1_555
Fe1 O7 1.941189 1_555
Fe1 O12 1.947276 1_555
Fe1 O9 2.032282 1_555
Fe1 O10 2.032282 1_555
Fe1 O2 2.185546 1_555
Fe1 O1 2.185546 1_555
Fe2 O11 1.932593 1_555
Fe2 O0 1.944940 1_565
Fe2 O14 2.075812 1_555
Fe2 O13 2.075812 1_555
Fe2 O6 2.152440 1_565
Fe2 O5 2.152440 1_565
Co0 O4 1.895609 1_555
Co0 O15 1.907662 1_545
Co0 O1 1.959887 1_555
Co0 O2 1.959887 1_455
Co0 O9 2.314811 1_445
Co0 O10 2.314811 1_545
O0 P0 1.523050 1_555
O1 P0 1.588766 1_555
O2 P0 1.588766 1_555
O3 P3 1.523990 1_545
O4 P2 1.548143 1_555
O5 P1 1.581827 1_555
O6 P1 1.581827 1_555
O7 P1 1.519001 1_554
O8 P2 1.534935 1_556
O9 P2 1.564417 1_655
O10 P2 1.564417 1_555
O11 P1 1.524631 1_555
O12 P0 1.516570 1_565
O13 P3 1.581880 1_655
O14 P3 1.581880 1_555
O15 P3 1.531857 1_555
