# generated using pymatgen
data_Mn3Cr2Ni(PO4)6
_symmetry_space_group_name_H-M   'P 1'
_cell_length_a   8.40485054
_cell_length_b   8.40485054
_cell_length_c   8.40485061
_cell_angle_alpha   61.64954360
_cell_angle_beta   61.64954360
_cell_angle_gamma   61.64954894
_symmetry_Int_Tables_number   1
_chemical_formula_structural   Mn3Cr2Ni(PO4)6
_chemical_formula_sum   'Mn3 Cr2 Ni1 P6 O24'
_cell_volume   435.36065061
_cell_formula_units_Z   1
loop_
 _symmetry_equiv_pos_site_id
 _symmetry_equiv_pos_as_xyz
  1  'x, y, z'
loop_
 _atom_site_type_symbol
 _atom_site_label
 _atom_site_symmetry_multiplicity
 _atom_site_fract_x
 _atom_site_fract_y
 _atom_site_fract_z
 _atom_site_occupancy
  Mn  Mn0  1  0.14390200  0.14390200  0.14390200  1
  Mn  Mn1  1  0.35640900  0.35640900  0.35640900  1
  Mn  Mn2  1  0.64482000  0.64482000  0.64482000  1
  Cr  Cr0  1  0.99871400  0.99871400  0.99871400  1
  Cr  Cr1  1  0.50024300  0.50024300  0.50024300  1
  Ni  Ni0  1  0.85659700  0.85659700  0.85659700  1
  P  P0  1  0.75044500  0.04641300  0.45249200  1
  P  P1  1  0.04641300  0.45249200  0.75044500  1
  P  P2  1  0.45249200  0.75044500  0.04641300  1
  P  P3  1  0.54750700  0.24949800  0.95495800  1
  P  P4  1  0.95495800  0.54750700  0.24949800  1
  P  P5  1  0.24949800  0.95495800  0.54750700  1
  O  O0  1  0.32183000  0.11354900  0.50372000  1
  O  O1  1  0.50372000  0.32183000  0.11354900  1
  O  O2  1  0.90138300  0.06591100  0.24564500  1
  O  O3  1  0.11354900  0.50372000  0.32183000  1
  O  O4  1  0.81792800  0.01569000  0.60380100  1
  O  O5  1  0.58808700  0.25202200  0.43683700  1
  O  O6  1  0.06591100  0.24564500  0.90138300  1
  O  O7  1  0.25202200  0.43683700  0.58808700  1
  O  O8  1  0.39312100  0.18085300  0.98929500  1
  O  O9  1  0.43683700  0.58808700  0.25202200  1
  O  O10  1  0.75055400  0.09864800  0.93975300  1
  O  O11  1  0.98929500  0.39312100  0.18085300  1
  O  O12  1  0.01569000  0.60380100  0.81792800  1
  O  O13  1  0.24564500  0.90138300  0.06591100  1
  O  O14  1  0.55923200  0.40868200  0.75188100  1
  O  O15  1  0.60380100  0.81792800  0.01569000  1
  O  O16  1  0.75188100  0.55923200  0.40868200  1
  O  O17  1  0.93975300  0.75055400  0.09864800  1
  O  O18  1  0.40868100  0.75188100  0.55923200  1
  O  O19  1  0.18085300  0.98929500  0.39312100  1
  O  O20  1  0.89181000  0.48704300  0.68072500  1
  O  O21  1  0.09864800  0.93975300  0.75055400  1
  O  O22  1  0.48704300  0.68072500  0.89181000  1
  O  O23  1  0.68072500  0.89181000  0.48704300  1
loop_
_geom_bond_atom_site_label_1
_geom_bond_atom_site_label_2
_geom_bond_distance
_geom_bond_site_symmetry_2
Mn0 O8 1.955011 1_554
Mn0 O19 1.955011 1_545
Mn0 O11 1.955011 1_455
Mn0 O2 2.096886 1_455
Mn0 O6 2.096886 1_554
Mn0 O13 2.096886 1_545
Mn1 O0 1.898784 1_555
Mn1 O1 1.898784 1_555
Mn1 O3 1.898785 1_555
Mn1 O9 2.020571 1_555
Mn1 O7 2.020571 1_555
Mn1 O5 2.020571 1_555
Mn2 O23 1.938931 1_555
Mn2 O22 1.938931 1_555
Mn2 O20 1.938931 1_555
Mn2 O14 2.076362 1_555
Mn2 O16 2.076362 1_555
Mn2 O18 2.076369 1_555
Cr0 O17 2.055221 1_556
Cr0 O21 2.055221 1_655
Cr0 O10 2.055221 1_565
Cr0 O6 2.087471 1_665
Cr0 O2 2.087471 1_566
Cr0 O13 2.087471 1_656
Cr1 O18 2.097357 1_555
Cr1 O16 2.097359 1_555
Cr1 O14 2.097359 1_555
Cr1 O7 2.097842 1_555
Cr1 O9 2.097842 1_555
Cr1 O5 2.097842 1_555
Ni0 O15 1.988182 1_556
Ni0 O4 1.988182 1_565
Ni0 O12 1.988183 1_655
Ni0 O21 2.111485 1_655
Ni0 O17 2.111485 1_556
Ni0 O10 2.111485 1_565
O0 P5 1.540445 1_545
O1 P3 1.540445 1_554
O2 P0 1.578263 1_555
O3 P4 1.540445 1_455
O4 P0 1.496576 1_555
O5 P0 1.606474 1_555
O6 P1 1.578263 1_555
O7 P1 1.606474 1_555
O8 P3 1.515626 1_555
O9 P2 1.606474 1_555
O10 P3 1.558221 1_555
O11 P4 1.515626 1_555
O12 P1 1.496576 1_555
O13 P2 1.578263 1_555
O14 P3 1.584199 1_555
O15 P2 1.496576 1_555
O16 P4 1.584199 1_555
O17 P4 1.558221 1_555
O18 P5 1.584196 1_555
O19 P5 1.515626 1_555
O20 P1 1.522945 1_655
O21 P5 1.558221 1_555
O22 P2 1.522945 1_556
O23 P0 1.522945 1_565
