# generated using pymatgen
data_LiTi2VO6
_symmetry_space_group_name_H-M   'P 1'
_cell_length_a   3.00318150
_cell_length_b   6.55202896
_cell_length_c   12.02542614
_cell_angle_alpha   102.04241836
_cell_angle_beta   90.01152077
_cell_angle_gamma   103.24029338
_symmetry_Int_Tables_number   1
_chemical_formula_structural   LiTi2VO6
_chemical_formula_sum   'Li2 Ti4 V2 O12'
_cell_volume   224.97837738
_cell_formula_units_Z   2
loop_
 _symmetry_equiv_pos_site_id
 _symmetry_equiv_pos_as_xyz
  1  'x, y, z'
loop_
 _atom_site_type_symbol
 _atom_site_label
 _atom_site_symmetry_multiplicity
 _atom_site_fract_x
 _atom_site_fract_y
 _atom_site_fract_z
 _atom_site_occupancy
  Li  Li0  1  0.33337200  0.66683700  0.08335200  1
  Li  Li1  1  0.33337700  0.66684900  0.58338200  1
  Ti  Ti0  1  0.01537400  0.03084700  0.48389400  1
  Ti  Ti1  1  0.01535000  0.03079800  0.98389500  1
  Ti  Ti2  1  0.65122600  0.30251600  0.18275400  1
  Ti  Ti3  1  0.65123700  0.30253600  0.68275900  1
  V  V0  1  0.33331800  0.66679800  0.83341500  1
  V  V1  1  0.33322100  0.66681100  0.33349700  1
  O  O0  1  0.81449700  0.62894400  0.21542900  1
  O  O1  1  0.81453700  0.62897200  0.71540400  1
  O  O2  1  0.85235900  0.70437100  0.45124900  1
  O  O3  1  0.85237100  0.70432800  0.95122800  1
  O  O4  1  0.16126800  0.32257500  0.06400500  1
  O  O5  1  0.16129200  0.32262500  0.56402700  1
  O  O6  1  0.50530500  0.01050200  0.10256200  1
  O  O7  1  0.50532100  0.01053800  0.60258200  1
  O  O8  1  0.16481200  0.32944700  0.28294400  1
  O  O9  1  0.16485400  0.32951800  0.78294900  1
  O  O10  1  0.50180800  0.00380800  0.38368600  1
  O  O11  1  0.50177100  0.00371700  0.88365600  1
loop_
_geom_bond_atom_site_label_1
_geom_bond_atom_site_label_2
_geom_bond_distance
_geom_bond_site_symmetry_2
Li0 O6 2.154175 1_565
Li0 O4 2.157779 1_555
Li0 O3 2.235157 1_454
Li0 O0 2.236064 1_555
Li0 O0 2.236252 1_455
Li0 O3 2.236656 1_554
Li1 O7 2.154340 1_565
Li1 O5 2.157527 1_555
Li1 O2 2.235353 1_455
Li1 O1 2.235607 1_555
Li1 O1 2.235686 1_455
Li1 O2 2.236721 1_555
O0 Ti2 2.034210 1_555
O0 V1 2.044339 1_655
O0 V1 2.045630 1_555
O1 Ti3 2.034270 1_555
O1 V0 2.044060 1_655
O1 V0 2.045009 1_555
O2 Ti0 2.034520 1_665
O2 V1 2.041898 1_655
O2 V1 2.043112 1_555
O3 Ti1 2.034476 1_665
O3 V0 2.042549 1_655
O3 V0 2.043454 1_555
O4 Ti1 1.903262 1_554
O4 Ti2 2.094671 1_555
O4 Ti2 2.095163 1_455
O5 Ti0 1.903350 1_555
O5 Ti3 2.094573 1_555
O5 Ti3 2.095057 1_455
O6 Ti2 1.904868 1_555
O6 Ti1 2.094543 1_654
O6 Ti1 2.094548 1_554
O7 Ti3 1.904726 1_555
O7 Ti0 2.094737 1_555
O7 Ti0 2.094739 1_655
O8 Ti2 1.909639 1_555
O8 Ti2 1.909867 1_455
O8 V1 2.106746 1_555
O9 Ti3 1.909611 1_555
O9 Ti3 1.909865 1_455
O9 V0 2.106159 1_555
O10 Ti0 1.909794 1_655
O10 Ti0 1.909915 1_555
O10 V1 2.104199 1_545
O11 Ti1 1.909991 1_655
O11 Ti1 1.910150 1_555
O11 V0 2.103764 1_545
