# generated using pymatgen
data_Bi17W3O34
_symmetry_space_group_name_H-M   'P 1'
_cell_length_a   10.27397700
_cell_length_b   10.41049024
_cell_length_c   10.41844021
_cell_angle_alpha   107.60518243
_cell_angle_beta   106.16782255
_cell_angle_gamma   113.20569215
_symmetry_Int_Tables_number   1
_chemical_formula_structural   Bi17W3O34
_chemical_formula_sum   'Bi17 W3 O34'
_cell_volume   869.85462646
_cell_formula_units_Z   1
loop_
 _symmetry_equiv_pos_site_id
 _symmetry_equiv_pos_as_xyz
  1  'x, y, z'
loop_
 _atom_site_type_symbol
 _atom_site_label
 _atom_site_symmetry_multiplicity
 _atom_site_fract_x
 _atom_site_fract_y
 _atom_site_fract_z
 _atom_site_occupancy
  Bi  Bi0  1  0.77762700  0.69328500  0.71969600  1
  Bi  Bi1  1  0.52675500  0.91810000  0.18913900  1
  Bi  Bi2  1  0.64137200  0.63339700  0.00087200  1
  Bi  Bi3  1  0.49736800  0.59680200  0.31970700  1
  Bi  Bi4  1  0.98394600  0.09209400  0.29142900  1
  Bi  Bi5  1  0.57336300  0.28040100  0.07734400  1
  Bi  Bi6  1  0.80329000  0.02699700  0.59213800  1
  Bi  Bi7  1  0.34760000  0.53847300  0.57922000  1
  Bi  Bi8  1  0.11122800  0.78519500  0.13085600  1
  Bi  Bi9  1  0.93833800  0.74067700  0.42516600  1
  Bi  Bi10  1  0.43656100  0.23298400  0.40143200  1
  Bi  Bi11  1  0.18413500  0.49276100  0.91295300  1
  Bi  Bi12  1  0.02528500  0.43914200  0.21871900  1
  Bi  Bi13  1  0.26994600  0.16738800  0.66607800  1
  Bi  Bi14  1  0.74298900  0.34968000  0.82222400  1
  Bi  Bi15  1  0.24172500  0.83419500  0.79803600  1
  Bi  Bi16  1  0.66958200  0.97824400  0.87878000  1
  W  W0  1  0.84587300  0.35235200  0.49686700  1
  W  W1  1  0.11120800  0.12570700  0.00569500  1
  W  W2  1  0.39558000  0.91137800  0.51502300  1
  O  O0  1  0.20904100  0.74004200  0.97242300  1
  O  O1  1  0.47800200  0.01045600  0.98012400  1
  O  O2  1  0.38009600  0.95769600  0.30448500  1
  O  O3  1  0.43187900  0.65251500  0.11618400  1
  O  O4  1  0.74200900  0.89254400  0.12398400  1
  O  O5  1  0.68240000  0.34538600  0.57690000  1
  O  O6  1  0.99058300  0.35080400  0.41462600  1
  O  O7  1  0.75394400  0.10134000  0.41130800  1
  O  O8  1  0.53652000  0.84176700  0.43819600  1
  O  O9  1  0.74343700  0.58197900  0.19559200  1
  O  O10  1  0.32161400  0.27374800  0.14406100  1
  O  O11  1  0.94995800  0.34922600  0.67992500  1
  O  O12  1  0.09579200  0.01223100  0.13749700  1
  O  O13  1  0.04990800  0.50196100  0.03484200  1
  O  O14  1  0.75771000  0.27544900  0.02100200  1
  O  O15  1  0.53189500  0.52367400  0.51777200  1
  O  O16  1  0.27858400  0.27966900  0.50748900  1
  O  O17  1  0.01698100  0.97662400  0.44167000  1
  O  O18  1  0.77391300  0.77398000  0.51119900  1
  O  O19  1  0.67241300  0.28336100  0.30550800  1
  O  O20  1  0.17978100  0.74720600  0.35587200  1
  O  O21  1  0.59435300  0.70315400  0.79592500  1
  O  O22  1  0.10970600  0.24084200  0.89478900  1
  O  O23  1  0.86919200  0.95732000  0.83552200  1
  O  O24  1  0.93741400  0.57018800  0.57235600  1
  O  O25  1  0.00406700  0.20696400  0.10953300  1
  O  O26  1  0.26372800  0.94581700  0.64324000  1
  O  O27  1  0.40690500  0.11524200  0.55241800  1
  O  O28  1  0.82643800  0.63272200  0.93190000  1
  O  O29  1  0.52934300  0.33160000  0.85489400  1
  O  O30  1  0.14942400  0.97975300  0.88047800  1
  O  O31  1  0.27746800  0.51467000  0.34881500  1
  O  O32  1  0.42999400  0.81120500  0.64754800  1
  O  O33  1  0.65157000  0.07944700  0.70055300  1
loop_
_geom_bond_atom_site_label_1
_geom_bond_atom_site_label_2
_geom_bond_distance
_geom_bond_site_symmetry_2
Bi0 O21 2.263339 1_555
Bi0 O15 2.280223 1_555
Bi0 O23 2.284781 1_555
Bi0 O28 2.451881 1_555
Bi0 O18 2.551206 1_555
Bi0 O24 2.926601 1_555
Bi0 O5 3.070095 1_555
Bi1 O2 2.254472 1_555
Bi1 O7 2.292613 1_565
Bi1 O3 2.316170 1_555
Bi1 O4 2.571542 1_555
Bi1 O1 2.637404 1_564
Bi1 O0 2.790047 1_554
Bi1 O8 2.922266 1_555
Bi1 O19 3.144060 1_565
Bi2 O28 2.213584 1_554
Bi2 O4 2.227681 1_555
Bi2 O9 2.327272 1_555
Bi2 O21 2.441300 1_554
Bi2 O29 2.606509 1_554
Bi2 O3 2.783589 1_555
Bi3 O31 2.223359 1_555
Bi3 O8 2.280344 1_555
Bi3 O3 2.354172 1_555
Bi3 O15 2.391448 1_555
Bi3 O18 2.437668 1_555
Bi3 O10 2.751579 1_555
Bi4 O4 2.204760 1_545
Bi4 O17 2.274689 1_645
Bi4 O12 2.357173 1_655
Bi4 O25 2.541322 1_655
Bi4 O6 2.573195 1_555
Bi4 O16 2.632771 1_655
Bi4 O7 2.983825 1_555
Bi5 O14 2.147592 1_555
Bi5 O19 2.295867 1_555
Bi5 O1 2.332182 1_554
Bi5 O29 2.492652 1_554
Bi5 O9 2.562436 1_555
Bi5 O10 2.840228 1_555
Bi6 O7 2.250482 1_555
Bi6 O33 2.298237 1_555
Bi6 O8 2.306248 1_545
Bi6 O18 2.372432 1_545
Bi6 O11 2.784458 1_555
Bi6 O23 2.820962 1_545
Bi6 O22 3.084090 1_655
Bi6 O17 3.143127 1_645
Bi7 O15 2.205446 1_555
Bi7 O31 2.208852 1_555
Bi7 O16 2.302555 1_555
Bi7 O21 2.347205 1_555
Bi7 O32 2.415052 1_555
Bi7 O6 3.005790 1_455
Bi8 O0 2.186799 1_554
Bi8 O2 2.338924 1_555
Bi8 O12 2.412243 1_565
Bi8 O20 2.451348 1_555
Bi8 O28 2.519770 1_454
Bi8 O13 2.548078 1_555
Bi9 O9 2.189797 1_555
Bi9 O17 2.195228 1_655
Bi9 O18 2.212274 1_555
Bi9 O24 2.672660 1_555
Bi9 O20 2.751947 1_655
Bi9 O26 2.847352 1_655
Bi10 O5 2.212703 1_555
Bi10 O27 2.282260 1_555
Bi10 O16 2.320983 1_555
Bi10 O2 2.486458 1_545
Bi10 O15 2.524016 1_555
Bi10 O19 2.794563 1_555
Bi10 O10 2.843321 1_555
Bi10 O12 3.094410 1_555
Bi11 O13 2.128228 1_556
Bi11 O3 2.293530 1_556
Bi11 O0 2.346106 1_555
Bi11 O22 2.353156 1_555
Bi11 O11 2.373796 1_455
Bi12 O31 2.227646 1_555
Bi12 O25 2.228737 1_555
Bi12 O13 2.249222 1_555
Bi12 O14 2.394913 1_455
Bi12 O6 2.533973 1_455
Bi12 O20 2.607644 1_555
Bi13 O27 2.194987 1_555
Bi13 O26 2.219188 1_545
Bi13 O16 2.296153 1_555
Bi13 O29 2.313089 1_555
Bi13 O17 2.429940 1_545
Bi14 O29 2.257989 1_555
Bi14 O33 2.345395 1_555
Bi14 O14 2.407219 1_556
Bi14 O5 2.438236 1_555
Bi14 O28 2.479927 1_555
Bi14 O13 2.722046 1_656
Bi14 O11 2.911834 1_555
Bi15 O1 2.162879 1_565
Bi15 O30 2.175306 1_555
Bi15 O26 2.265392 1_555
Bi15 O0 2.352029 1_555
Bi15 O24 2.842953 1_455
Bi15 O32 2.843163 1_555
Bi16 O23 2.294270 1_555
Bi16 O32 2.382609 1_555
Bi16 O33 2.395377 1_565
Bi16 O21 2.435711 1_555
Bi16 O1 2.562181 1_565
Bi16 O14 2.619229 1_566
Bi16 O4 2.952820 1_556
Bi16 O25 2.957467 1_666
O0 O13 2.759118 1_556
O0 O3 2.979096 1_556
O0 O2 2.987538 1_556
O0 O1 3.029316 1_565
O1 O14 2.900036 1_556
O2 W2 2.361162 1_555
O2 O27 2.474507 1_565
O2 O20 2.663305 1_555
O2 O8 2.697900 1_555
O3 O8 2.935379 1_555
O4 O7 3.057811 1_565
O5 W0 2.059559 1_555
O6 W0 1.914361 1_555
O6 O7 2.753129 1_555
O7 W0 2.166172 1_555
O7 O8 2.901730 1_545
O8 W2 2.093830 1_555
O10 W1 1.849709 1_555
O10 O12 2.760582 1_555
O10 O31 3.040687 1_555
O11 W0 1.926425 1_555
O11 O7 2.635195 1_555
O11 O5 2.637109 1_555
O12 W1 2.064267 1_555
O12 O25 2.606283 1_555
O12 O30 2.830027 1_544
O13 O14 2.927132 1_455
O14 O25 2.878392 1_655
O14 O33 2.932054 1_554
O15 O21 2.654245 1_555
O15 O31 2.661733 1_555
O15 O16 2.776234 1_555
O15 O18 2.841512 1_555
O15 O5 2.939112 1_555
O16 O27 2.608988 1_555
O16 O17 2.937642 1_545
O17 O18 2.998615 1_455
O18 O8 2.770030 1_555
O18 O23 2.966950 1_555
O19 W0 1.952684 1_555
O19 O5 2.665320 1_555
O19 O7 2.739998 1_555
O20 W2 1.959134 1_555
O20 O26 2.719300 1_555
O20 O31 2.953159 1_555
O21 O32 2.757079 1_555
O21 O23 2.819157 1_555
O21 O28 2.890508 1_555
O21 O4 2.923949 1_556
O22 W1 1.901167 1_556
O22 O23 2.738482 1_445
O23 W1 2.151454 1_666
O23 O30 2.686278 1_655
O23 O25 2.700943 1_666
O24 W0 1.863937 1_555
O24 O5 2.765442 1_555
O25 W1 1.985207 1_555
O25 O31 2.923169 1_555
O26 W2 2.202001 1_555
O26 O27 2.431090 1_565
O26 O32 2.601101 1_555
O26 O30 3.004695 1_555
O27 W2 1.987351 1_545
O27 O5 2.775035 1_555
O27 O33 2.786565 1_555
O27 O29 2.802201 1_555
O30 W1 1.929019 1_566
O31 O8 3.017563 1_555
O31 O32 3.054803 1_555
O32 W2 2.002147 1_555
O32 O33 2.577347 1_565
O32 O8 2.744284 1_555
O33 W2 2.282826 1_545
O33 O8 2.606812 1_545
