# generated using pymatgen
data_LiFeO2
_symmetry_space_group_name_H-M   'P 1'
_cell_length_a   4.08449789
_cell_length_b   6.00603735
_cell_length_c   2.93905735
_cell_angle_alpha   89.99999337
_cell_angle_beta   90.00005295
_cell_angle_gamma   89.99986348
_symmetry_Int_Tables_number   1
_chemical_formula_structural   LiFeO2
_chemical_formula_sum   'Li2 Fe2 O4'
_cell_volume   72.09991708
_cell_formula_units_Z   2
loop_
 _symmetry_equiv_pos_site_id
 _symmetry_equiv_pos_as_xyz
  1  'x, y, z'
loop_
 _atom_site_type_symbol
 _atom_site_label
 _atom_site_symmetry_multiplicity
 _atom_site_fract_x
 _atom_site_fract_y
 _atom_site_fract_z
 _atom_site_occupancy
  Li  Li0  1  0.25000100  0.10510471  0.24999984  1
  Li  Li1  1  0.74999900  0.89489734  0.75000015  1
  Fe  Fe0  1  0.24999700  0.64556990  0.25000019  1
  Fe  Fe1  1  0.75000100  0.35443153  0.75000008  1
  O  O0  1  0.25000100  0.39427912  0.75000002  1
  O  O1  1  0.24999900  0.86036334  0.75000028  1
  O  O2  1  0.75000100  0.13963558  0.25000019  1
  O  O3  1  0.75000000  0.60571850  0.25000024  1
loop_
_geom_bond_atom_site_label_1
_geom_bond_atom_site_label_2
_geom_bond_distance
_geom_bond_site_symmetry_2
Li0 O2 2.052752 1_455
Li0 O2 2.052753 1_555
Li0 O1 2.078507 1_544
Li0 O1 2.078509 1_545
Li0 O0 2.275074 1_554
Li0 O0 2.275075 1_555
Li1 O1 2.052754 1_655
Li1 O1 2.052755 1_555
Li1 O2 2.078495 1_565
Li1 O2 2.078495 1_566
Li1 O3 2.275094 1_555
Li1 O3 2.275094 1_556
Fe0 O1 1.955444 1_554
Fe0 O1 1.955445 1_555
Fe0 O3 2.056215 1_455
Fe0 O3 2.056238 1_555
Fe0 O0 2.106510 1_555
Fe0 O0 2.106511 1_554
Fe1 O2 1.955454 1_555
Fe1 O2 1.955454 1_556
Fe1 O0 2.056224 1_555
Fe1 O0 2.056225 1_655
Fe1 O3 2.106493 1_555
Fe1 O3 2.106494 1_556
