# generated using pymatgen
data_Na5BiO5
_symmetry_space_group_name_H-M   'P 1'
_cell_length_a   4.51313103
_cell_length_b   5.87045539
_cell_length_c   6.49639157
_cell_angle_alpha   72.83432102
_cell_angle_beta   89.96216584
_cell_angle_gamma   67.38670842
_symmetry_Int_Tables_number   1
_chemical_formula_structural   Na5BiO5
_chemical_formula_sum   'Na5 Bi1 O5'
_cell_volume   150.55961419
_cell_formula_units_Z   1
loop_
 _symmetry_equiv_pos_site_id
 _symmetry_equiv_pos_as_xyz
  1  'x, y, z'
loop_
 _atom_site_type_symbol
 _atom_site_label
 _atom_site_symmetry_multiplicity
 _atom_site_fract_x
 _atom_site_fract_y
 _atom_site_fract_z
 _atom_site_occupancy
  Na  Na0  1  0.67601888  0.65374084  0.87253086  1
  Na  Na1  1  0.69436451  0.61719916  0.34344434  1
  Na  Na2  1  0.29990040  0.40756086  0.68898359  1
  Na  Na3  1  0.31690457  0.37184001  0.15940198  1
  Na  Na4  1  0.99775462  0.01274635  0.51622129  1
  Bi  Bi0  1  0.99661494  0.01265165  0.01611831  1
  O  O0  1  0.13605923  0.73384710  0.85243621  1
  O  O1  1  0.49678367  0.01262910  0.01606249  1
  O  O2  1  0.14700738  0.71203009  0.32293269  1
  O  O3  1  0.84703888  0.31330149  0.70913330  1
  O  O4  1  0.85672991  0.29154435  0.17954696  1
loop_
_geom_bond_atom_site_label_1
_geom_bond_atom_site_label_2
_geom_bond_distance
_geom_bond_site_symmetry_2
Na0 O0 2.293385 1_555
Na0 O0 2.294152 1_655
Na0 O4 2.308570 1_556
Na0 O3 2.404483 1_555
Na0 O1 2.410505 1_566
Na1 O2 2.308486 1_555
Na1 O2 2.308955 1_655
Na1 O4 2.334216 1_555
Na1 O3 2.419998 1_555
Na1 O1 2.490695 1_565
Na2 O3 2.308061 1_455
Na2 O3 2.308182 1_555
Na2 O0 2.335288 1_555
Na2 O2 2.422931 1_555
Na2 O1 2.487970 1_556
Na3 O4 2.292543 1_555
Na3 O4 2.295343 1_455
Na3 O0 2.307787 1_554
Na3 O2 2.403849 1_555
Na3 O1 2.411327 1_555
Na4 O0 2.223946 1_645
Na4 O4 2.226043 1_555
Na4 O3 2.351064 1_555
Na4 O2 2.353671 1_645
Bi0 O4 2.106313 1_555
Bi0 O0 2.107101 1_644
Bi0 O2 2.133605 1_645
Bi0 O3 2.134443 1_554
Bi0 O1 2.255855 1_555
Bi0 O1 2.257276 1_655
