# generated using pymatgen
data_Hf2N2O
_symmetry_space_group_name_H-M   'P 1'
_cell_length_a   8.64285066
_cell_length_b   8.67686120
_cell_length_c   8.67986227
_cell_angle_alpha   109.59412350
_cell_angle_beta   109.44580205
_cell_angle_gamma   109.22328872
_symmetry_Int_Tables_number   1
_chemical_formula_structural   Hf2N2O
_chemical_formula_sum   'Hf16 N16 O8'
_cell_volume   502.00830077
_cell_formula_units_Z   8
loop_
 _symmetry_equiv_pos_site_id
 _symmetry_equiv_pos_as_xyz
  1  'x, y, z'
loop_
 _atom_site_type_symbol
 _atom_site_label
 _atom_site_symmetry_multiplicity
 _atom_site_fract_x
 _atom_site_fract_y
 _atom_site_fract_z
 _atom_site_occupancy
  Hf  Hf0  1  0.46164100  0.21581289  0.25716104  1
  Hf  Hf1  1  0.00606846  0.00903785  0.99620678  1
  Hf  Hf2  1  0.74676064  0.46462022  0.71307149  1
  Hf  Hf3  1  0.50761379  0.51648447  0.00738267  1
  Hf  Hf4  1  0.98894129  0.49772562  0.49743570  1
  Hf  Hf5  1  0.24234883  0.02519172  0.78321811  1
  Hf  Hf6  1  0.21467645  0.25012727  0.46193558  1
  Hf  Hf7  1  0.71687146  0.25500464  0.96956093  1
  Hf  Hf8  1  0.03800111  0.28567854  0.74954038  1
  Hf  Hf9  1  0.96175045  0.70709167  0.24924601  1
  Hf  Hf10  1  0.27744637  0.74021682  0.02126231  1
  Hf  Hf11  1  0.78383396  0.75050948  0.52769546  1
  Hf  Hf12  1  0.75300151  0.96843368  0.21569341  1
  Hf  Hf13  1  0.49703018  0.99552660  0.50695374  1
  Hf  Hf14  1  0.25191842  0.52971836  0.28049350  1
  Hf  Hf15  1  0.53869724  0.79729876  0.75678772  1
  N  N0  1  0.46309507  0.23219253  0.51088920  1
  N  N1  1  0.95752656  0.22442589  0.46586771  1
  N  N2  1  0.73641792  0.50834532  0.96239571  1
  N  N3  1  0.02744542  0.54197166  0.77160994  1
  N  N4  1  0.23171912  0.95746778  0.99076853  1
  N  N5  1  0.98589571  0.03609675  0.76204335  1
  N  N6  1  0.72274667  0.46476731  0.44882992  1
  N  N7  1  0.48260073  0.72458826  0.94892012  1
  N  N8  1  0.97126224  0.45666718  0.22825091  1
  N  N9  1  0.77517176  0.04413157  0.01186528  1
  N  N10  1  0.26237245  0.48816334  0.03545616  1
  N  N11  1  0.04934496  0.77245210  0.53530295  1
  N  N12  1  0.45840059  0.99527988  0.72980695  1
  N  N13  1  0.23602893  0.27088436  0.23100513  1
  N  N14  1  0.73055509  0.74159541  0.27095268  1
  N  N15  1  0.53054512  0.75992325  0.48944092  1
  O  O0  1  0.27491572  0.26232424  0.72993142  1
  O  O1  1  0.76366340  0.72699608  0.77446857  1
  O  O2  1  0.54712711  0.00896071  0.27541864  1
  O  O3  1  0.77125990  0.22382644  0.73449390  1
  O  O4  1  0.27721507  0.53063370  0.55081379  1
  O  O5  1  0.01542483  0.96318980  0.23825220  1
  O  O6  1  0.51273775  0.27459016  0.04634217  1
  O  O7  1  0.22992568  0.78204969  0.26323204  1
loop_
_geom_bond_atom_site_label_1
_geom_bond_atom_site_label_2
_geom_bond_distance
_geom_bond_site_symmetry_2
Hf0 N6 2.099161 1_555
Hf0 N13 2.115110 1_555
Hf0 N0 2.154311 1_555
Hf0 O2 2.185968 1_555
Hf0 O6 2.195285 1_555
Hf0 N4 2.202533 1_544
Hf1 N5 2.080307 1_455
Hf1 N13 2.118852 1_556
Hf1 N4 2.151227 1_545
Hf1 N9 2.155603 1_456
Hf1 O1 2.205095 1_445
Hf1 O5 2.246619 1_546
Hf2 O1 2.098492 1_555
Hf2 N2 2.106113 1_555
Hf2 N3 2.114733 1_655
Hf2 N0 2.159468 1_555
Hf2 O3 2.229440 1_555
Hf2 N6 2.233556 1_555
Hf3 N14 2.085958 1_555
Hf3 N7 2.088856 1_554
Hf3 N10 2.157190 1_555
Hf3 N2 2.157698 1_554
Hf3 O0 2.236125 1_554
Hf3 O6 2.246978 1_555
Hf4 N6 2.095818 1_555
Hf4 N11 2.145617 1_655
Hf4 N3 2.167332 1_655
Hf4 N8 2.185770 1_555
Hf4 N1 2.205206 1_555
Hf4 O4 2.275521 1_655
Hf5 N11 2.063565 1_545
Hf5 N4 2.093768 1_545
Hf5 N12 2.141014 1_545
Hf5 N5 2.198652 1_455
Hf5 O0 2.206884 1_555
Hf5 O6 2.271905 1_556
Hf6 O4 2.099510 1_555
Hf6 N0 2.114591 1_555
Hf6 N13 2.133270 1_555
Hf6 O5 2.154575 1_545
Hf6 O0 2.164610 1_555
Hf6 N1 2.172481 1_455
Hf7 N8 2.117070 1_556
Hf7 O6 2.118997 1_556
Hf7 N9 2.161281 1_556
Hf7 N2 2.172245 1_555
Hf7 O3 2.193014 1_555
Hf7 N12 2.200868 1_545
Hf8 N5 2.110051 1_455
Hf8 O3 2.134888 1_455
Hf8 N1 2.137159 1_455
Hf8 N10 2.152650 1_556
Hf8 O0 2.178284 1_555
Hf8 N3 2.202251 1_555
Hf9 O7 2.139382 1_655
Hf9 N11 2.140322 1_655
Hf9 N8 2.150227 1_555
Hf9 N2 2.155445 1_554
Hf9 O5 2.157555 1_655
Hf9 N14 2.173626 1_555
Hf10 N3 2.063544 1_554
Hf10 N7 2.097419 1_554
Hf10 N4 2.129616 1_554
Hf10 N10 2.195232 1_555
Hf10 O7 2.207431 1_555
Hf10 O2 2.298687 1_565
Hf11 N14 2.088512 1_555
Hf11 N15 2.135697 1_555
Hf11 N6 2.157204 1_555
Hf11 N5 2.175379 1_565
Hf11 N11 2.215752 1_655
Hf11 O1 2.275589 1_555
Hf12 N1 2.097006 1_565
Hf12 O2 2.112437 1_565
Hf12 N9 2.126132 1_565
Hf12 N14 2.141350 1_555
Hf12 O5 2.227747 1_655
Hf12 N7 2.270446 1_554
Hf13 N12 2.070130 1_555
Hf13 N15 2.120612 1_555
Hf13 O7 2.130712 1_555
Hf13 O3 2.147028 1_565
Hf13 N0 2.158785 1_565
Hf13 O2 2.223328 1_565
Hf14 N10 2.072892 1_555
Hf14 N13 2.087551 1_555
Hf14 N8 2.133930 1_455
Hf14 N15 2.138450 1_555
Hf14 O4 2.279908 1_555
Hf14 O7 2.308105 1_555
Hf15 N12 2.105744 1_555
Hf15 N7 2.111132 1_555
Hf15 N9 2.142509 1_566
Hf15 O4 2.179295 1_555
Hf15 O1 2.195743 1_555
Hf15 N15 2.205982 1_555
N0 O0 2.886837 1_555
N1 O2 2.909566 1_555
N2 O1 2.890118 1_555
N5 O3 2.847363 1_555
N6 O6 2.856816 1_555
N7 O4 2.823480 1_555
N8 N9 2.930769 1_555
N11 N12 2.902224 1_555
N14 N15 2.961688 1_555
O5 O7 2.798922 1_555
