# generated using pymatgen
data_KH8O4F
_symmetry_space_group_name_H-M   'P 1'
_cell_length_a   13.31792400
_cell_length_b   6.65505400
_cell_length_c   6.82746914
_cell_angle_alpha   89.19902103
_cell_angle_beta   90.00000000
_cell_angle_gamma   90.00000000
_symmetry_Int_Tables_number   1
_chemical_formula_structural   KH8O4F
_chemical_formula_sum   'K4 H32 O16 F4'
_cell_volume   605.06972459
_cell_formula_units_Z   4
loop_
 _symmetry_equiv_pos_site_id
 _symmetry_equiv_pos_as_xyz
  1  'x, y, z'
loop_
 _atom_site_type_symbol
 _atom_site_label
 _atom_site_symmetry_multiplicity
 _atom_site_fract_x
 _atom_site_fract_y
 _atom_site_fract_z
 _atom_site_occupancy
  K  K0  1  0.62969900  0.00209000  0.66114100  1
  K  K1  1  0.12969900  0.49791000  0.33885900  1
  K  K2  1  0.37030100  0.99791000  0.33885900  1
  K  K3  1  0.87030100  0.50209000  0.66114100  1
  H  H0  1  0.86987300  0.98070500  0.62633600  1
  H  H1  1  0.36987300  0.51929500  0.37366400  1
  H  H2  1  0.13012700  0.01929500  0.37366400  1
  H  H3  1  0.63012700  0.48070500  0.62633600  1
  H  H4  1  0.66278100  0.44347900  0.40793100  1
  H  H5  1  0.16278100  0.05652100  0.59206900  1
  H  H6  1  0.33721900  0.55652100  0.59206900  1
  H  H7  1  0.83721900  0.94347900  0.40793100  1
  H  H8  1  0.66867200  0.26391200  0.06686900  1
  H  H9  1  0.16867200  0.23608800  0.93313100  1
  H  H10  1  0.33132800  0.73608800  0.93313100  1
  H  H11  1  0.83132800  0.76391200  0.06686900  1
  H  H12  1  0.75350700  0.09801800  0.08383200  1
  H  H13  1  0.25350700  0.40198200  0.91616800  1
  H  H14  1  0.24649300  0.90198200  0.91616800  1
  H  H15  1  0.74649300  0.59801800  0.08383200  1
  H  H16  1  0.60835300  0.97788000  0.19765000  1
  H  H17  1  0.10835300  0.52212000  0.80235000  1
  H  H18  1  0.39164700  0.02212000  0.80235000  1
  H  H19  1  0.89164700  0.47788000  0.19765000  1
  H  H20  1  0.91295500  0.25431100  0.25509800  1
  H  H21  1  0.41295500  0.24568900  0.74490200  1
  H  H22  1  0.08704500  0.74568900  0.74490200  1
  H  H23  1  0.58704500  0.75431100  0.25509800  1
  H  H24  1  0.50946700  0.41540900  0.18793000  1
  H  H25  1  0.00946700  0.08459100  0.81207000  1
  H  H26  1  0.49053300  0.58459100  0.81207000  1
  H  H27  1  0.99053300  0.91540900  0.18793000  1
  H  H28  1  0.90929000  0.09787000  0.93127100  1
  H  H29  1  0.40929000  0.40213000  0.06872900  1
  H  H30  1  0.09071000  0.90213000  0.06872900  1
  H  H31  1  0.59071000  0.59787000  0.93127100  1
  O  O0  1  0.67552900  0.39923200  0.54491100  1
  O  O1  1  0.17552900  0.10076800  0.45508900  1
  O  O2  1  0.32447100  0.60076800  0.45508900  1
  O  O3  1  0.82447100  0.89923200  0.54491100  1
  O  O4  1  0.68492900  0.12376800  0.03254800  1
  O  O5  1  0.18492900  0.37623200  0.96745200  1
  O  O6  1  0.31507100  0.87623200  0.96745200  1
  O  O7  1  0.81507100  0.62376800  0.03254800  1
  O  O8  1  0.93046500  0.39246800  0.29124500  1
  O  O9  1  0.43046500  0.10753200  0.70875500  1
  O  O10  1  0.06953500  0.60753200  0.70875500  1
  O  O11  1  0.56953500  0.89246800  0.29124500  1
  O  O12  1  0.93850900  0.12806200  0.80043500  1
  O  O13  1  0.43850900  0.37193800  0.19956500  1
  O  O14  1  0.06149100  0.87193800  0.19956500  1
  O  O15  1  0.56149100  0.62806200  0.80043500  1
  F  F0  1  0.63248500  0.51072600  0.15567200  1
  F  F1  1  0.13248500  0.98927400  0.84432800  1
  F  F2  1  0.36751500  0.48927400  0.84432800  1
  F  F3  1  0.86751500  0.01072600  0.15567200  1
loop_
_geom_bond_atom_site_label_1
_geom_bond_atom_site_label_2
_geom_bond_distance
_geom_bond_site_symmetry_2
K0 O11 2.757476 1_545
K0 O9 2.764944 1_555
K0 O4 2.772058 1_556
K0 O3 2.800378 1_545
K0 O15 2.803468 1_545
K0 O0 2.815864 1_555
K1 O10 2.757476 1_555
K1 O8 2.764944 1_455
K1 O5 2.772058 1_554
K1 O2 2.800378 1_555
K1 O14 2.803468 1_555
K1 O1 2.815864 1_555
K2 O9 2.757476 1_565
K2 O11 2.764944 1_555
K2 O6 2.772058 1_554
K2 O1 2.800378 1_565
K2 O13 2.803468 1_565
K2 O2 2.815864 1_555
K3 O8 2.757476 1_555
K3 O10 2.764944 1_655
K3 O7 2.772058 1_556
K3 O0 2.800378 1_555
K3 O12 2.803468 1_555
K3 O3 2.815864 1_555
H0 O3 0.988476 1_555
H1 O2 0.988476 1_555
H2 O1 0.988476 1_555
H3 O0 0.988476 1_555
H4 O0 0.991203 1_555
H5 O1 0.991203 1_555
H6 O2 0.991203 1_555
H7 O3 0.991203 1_555
H8 O4 0.988818 1_555
H9 O5 0.988818 1_555
H10 O6 0.988818 1_555
H11 O7 0.988818 1_555
H12 O4 0.992187 1_555
H13 O5 0.992187 1_555
H14 O6 0.992187 1_555
H15 O7 0.992187 1_555
H16 O11 0.994260 1_555
H17 O10 0.994260 1_555
H18 O9 0.994260 1_555
H19 O8 0.994260 1_555
H20 O8 0.983364 1_555
H21 O9 0.983364 1_555
H22 O10 0.983364 1_555
H23 O11 0.983364 1_555
H24 O13 0.991168 1_555
H25 O12 0.991168 1_455
H26 O15 0.991168 1_555
H27 O14 0.991168 1_655
H28 O12 0.992335 1_555
H29 O13 0.992335 1_555
H30 O14 0.992335 1_555
H31 O15 0.992335 1_555
F0 H15 1.695724 1_555
F0 H31 1.722885 1_554
F0 H24 1.769508 1_555
F0 H4 1.818740 1_555
F0 H8 1.823653 1_555
F0 H23 1.866996 1_555
F1 H14 1.695724 1_555
F1 H30 1.722885 1_556
F1 H25 1.769508 1_565
F1 H5 1.818740 1_565
F1 H9 1.823653 1_565
F1 H22 1.866996 1_555
F2 H13 1.695724 1_555
F2 H29 1.722885 1_556
F2 H26 1.769508 1_555
F2 H6 1.818740 1_555
F2 H10 1.823653 1_555
F2 H21 1.866996 1_555
F3 H12 1.695724 1_555
F3 H28 1.722885 1_554
F3 H27 1.769508 1_545
F3 H7 1.818740 1_545
F3 H11 1.823653 1_545
F3 H20 1.866996 1_555
