# generated using pymatgen
data_Li3Mn(FeO2)4
_symmetry_space_group_name_H-M   'P 1'
_cell_length_a   5.98086210
_cell_length_b   5.98086210
_cell_length_c   6.03244687
_cell_angle_alpha   59.82787516
_cell_angle_beta   59.82787516
_cell_angle_gamma   60.64793549
_symmetry_Int_Tables_number   1
_chemical_formula_structural   Li3Mn(FeO2)4
_chemical_formula_sum   'Li3 Mn1 Fe4 O8'
_cell_volume   152.91200964
_cell_formula_units_Z   1
loop_
 _symmetry_equiv_pos_site_id
 _symmetry_equiv_pos_as_xyz
  1  'x, y, z'
loop_
 _atom_site_type_symbol
 _atom_site_label
 _atom_site_symmetry_multiplicity
 _atom_site_fract_x
 _atom_site_fract_y
 _atom_site_fract_z
 _atom_site_occupancy
  Li  Li0  1  0.00000000  0.50000000  0.00000000  1
  Li  Li1  1  0.00000000  0.00000000  0.50000000  1
  Li  Li2  1  0.50000000  0.00000000  0.00000000  1
  Mn  Mn0  1  0.50000000  0.50000000  0.00000000  1
  Fe  Fe0  1  0.50000000  0.50000000  0.50000000  1
  Fe  Fe1  1  0.00000000  0.00000000  0.00000000  1
  Fe  Fe2  1  0.00000000  0.50000000  0.50000000  1
  Fe  Fe3  1  0.50000000  0.00000000  0.50000000  1
  O  O0  1  0.26979600  0.26979600  0.24436800  1
  O  O1  1  0.24674200  0.74638100  0.75432100  1
  O  O2  1  0.74638100  0.24674200  0.75432100  1
  O  O3  1  0.74929700  0.74929700  0.24746500  1
  O  O4  1  0.25070300  0.25070300  0.75253500  1
  O  O5  1  0.25361900  0.75325800  0.24567900  1
  O  O6  1  0.75325800  0.25361900  0.24567900  1
  O  O7  1  0.73020400  0.73020400  0.75563200  1
loop_
_geom_bond_atom_site_label_1
_geom_bond_atom_site_label_2
_geom_bond_distance
_geom_bond_site_symmetry_2
Li0 O1 2.069731 1_554
Li0 O6 2.069731 1_455
Li0 O3 2.120270 1_455
Li0 O4 2.120270 1_554
Li0 O0 2.201214 1_555
Li0 O7 2.201214 1_454
Li1 O2 2.138791 1_455
Li1 O1 2.138791 1_545
Li1 O5 2.138791 1_545
Li1 O6 2.138791 1_455
Li1 O0 2.266180 1_555
Li1 O7 2.266180 1_445
Li2 O2 2.069731 1_554
Li2 O5 2.069731 1_545
Li2 O3 2.120270 1_545
Li2 O4 2.120270 1_554
Li2 O0 2.201214 1_555
Li2 O7 2.201214 1_544
Mn0 O7 1.934522 1_554
Mn0 O0 1.934522 1_555
Mn0 O5 2.129625 1_555
Mn0 O6 2.129625 1_555
Mn0 O1 2.129625 1_554
Mn0 O2 2.129625 1_554
Fe0 O3 2.092839 1_555
Fe0 O4 2.092839 1_555
Fe0 O1 2.137252 1_555
Fe0 O2 2.137252 1_555
Fe0 O5 2.137252 1_555
Fe0 O6 2.137252 1_555
Fe1 O3 2.104545 1_445
Fe1 O4 2.104545 1_554
Fe1 O6 2.131171 1_455
Fe1 O5 2.131171 1_545
Fe1 O2 2.131171 1_454
Fe1 O1 2.131171 1_544
Fe2 O7 2.081431 1_455
Fe2 O0 2.081431 1_555
Fe2 O5 2.127485 1_555
Fe2 O2 2.127485 1_455
Fe2 O4 2.147857 1_555
Fe2 O3 2.147857 1_455
Fe3 O7 2.081431 1_545
Fe3 O0 2.081431 1_555
Fe3 O6 2.127485 1_555
Fe3 O1 2.127485 1_545
Fe3 O4 2.147857 1_555
Fe3 O3 2.147857 1_545
