# generated using pymatgen
data_PH8N4Cl
_symmetry_space_group_name_H-M   'P 1'
_cell_length_a   4.78679700
_cell_length_b   7.75005200
_cell_length_c   16.53779500
_cell_angle_alpha   90.00000000
_cell_angle_beta   90.00000000
_cell_angle_gamma   90.00000000
_symmetry_Int_Tables_number   1
_chemical_formula_structural   PH8N4Cl
_chemical_formula_sum   'P4 H32 N16 Cl4'
_cell_volume   613.51788955
_cell_formula_units_Z   4
loop_
 _symmetry_equiv_pos_site_id
 _symmetry_equiv_pos_as_xyz
  1  'x, y, z'
loop_
 _atom_site_type_symbol
 _atom_site_label
 _atom_site_symmetry_multiplicity
 _atom_site_fract_x
 _atom_site_fract_y
 _atom_site_fract_z
 _atom_site_occupancy
  P  P0  1  0.00000000  0.75000000  0.12720200  1
  P  P1  1  0.00000000  0.25000000  0.87279800  1
  P  P2  1  0.50000000  0.75000000  0.62720200  1
  P  P3  1  0.50000000  0.25000000  0.37279800  1
  H  H0  1  0.19843800  0.85149300  0.24598900  1
  H  H1  1  0.19843800  0.35149300  0.75401100  1
  H  H2  1  0.22897100  0.99991100  0.16826900  1
  H  H3  1  0.22897100  0.49991100  0.83173100  1
  H  H4  1  0.24077500  0.66901200  0.01114600  1
  H  H5  1  0.24077500  0.16901200  0.98885400  1
  H  H6  1  0.25783400  0.51159000  0.08516300  1
  H  H7  1  0.25783400  0.01159000  0.91483700  1
  H  H8  1  0.24216600  0.01159000  0.41483700  1
  H  H9  1  0.24216600  0.51159000  0.58516300  1
  H  H10  1  0.25922500  0.66901200  0.51114600  1
  H  H11  1  0.25922500  0.16901200  0.48885400  1
  H  H12  1  0.27102900  0.49991100  0.33173100  1
  H  H13  1  0.27102900  0.99991100  0.66826900  1
  H  H14  1  0.30156200  0.35149300  0.25401100  1
  H  H15  1  0.30156200  0.85149300  0.74598900  1
  H  H16  1  0.69843800  0.14850700  0.25401100  1
  H  H17  1  0.69843800  0.64850700  0.74598900  1
  H  H18  1  0.72897100  0.00008900  0.33173100  1
  H  H19  1  0.72897100  0.50008900  0.66826900  1
  H  H20  1  0.74077500  0.83098800  0.51114600  1
  H  H21  1  0.74077500  0.33098800  0.48885400  1
  H  H22  1  0.75783400  0.98841000  0.58516300  1
  H  H23  1  0.75783400  0.48841000  0.41483700  1
  H  H24  1  0.74216600  0.98841000  0.08516300  1
  H  H25  1  0.74216600  0.48841000  0.91483700  1
  H  H26  1  0.75922500  0.83098800  0.01114600  1
  H  H27  1  0.75922500  0.33098800  0.98885400  1
  H  H28  1  0.77102900  0.50008900  0.16826900  1
  H  H29  1  0.77102900  0.00008900  0.83173100  1
  H  H30  1  0.80156200  0.64850700  0.24598900  1
  H  H31  1  0.80156200  0.14850700  0.75401100  1
  N  N0  1  0.13872100  0.88921700  0.18964500  1
  N  N1  1  0.13872100  0.38921700  0.81035500  1
  N  N2  1  0.17164700  0.62524600  0.06574800  1
  N  N3  1  0.17164700  0.12524600  0.93425200  1
  N  N4  1  0.32835300  0.12524600  0.43425200  1
  N  N5  1  0.32835300  0.62524600  0.56574800  1
  N  N6  1  0.36127900  0.38921700  0.31035500  1
  N  N7  1  0.36127900  0.88921700  0.68964500  1
  N  N8  1  0.63872100  0.11078300  0.31035500  1
  N  N9  1  0.63872100  0.61078300  0.68964500  1
  N  N10  1  0.67164700  0.87475400  0.56574800  1
  N  N11  1  0.67164700  0.37475400  0.43425200  1
  N  N12  1  0.82835300  0.87475400  0.06574800  1
  N  N13  1  0.82835300  0.37475400  0.93425200  1
  N  N14  1  0.86127900  0.11078300  0.81035500  1
  N  N15  1  0.86127900  0.61078300  0.18964500  1
  Cl  Cl0  1  0.00000000  0.75000000  0.38546000  1
  Cl  Cl1  1  0.00000000  0.25000000  0.61454000  1
  Cl  Cl2  1  0.50000000  0.25000000  0.11454000  1
  Cl  Cl3  1  0.50000000  0.75000000  0.88546000  1
loop_
_geom_bond_atom_site_label_1
_geom_bond_atom_site_label_2
_geom_bond_distance
_geom_bond_site_symmetry_2
H0 N0 1.017570 1_555
H1 N1 1.017570 1_555
H2 N0 1.023507 1_555
H3 N1 1.023507 1_555
H4 N2 1.019778 1_555
H5 N3 1.019778 1_555
H6 N2 1.024294 1_555
H7 N3 1.024294 1_555
H8 N4 1.024294 1_555
H9 N5 1.024294 1_555
H10 N5 1.019778 1_555
H11 N4 1.019778 1_555
H12 N6 1.023507 1_555
H13 N7 1.023507 1_555
H14 N6 1.017570 1_555
H15 N7 1.017570 1_555
H16 N8 1.017570 1_555
H17 N9 1.017570 1_555
H18 N8 1.023507 1_555
H19 N9 1.023507 1_555
H20 N10 1.019778 1_555
H21 N11 1.019778 1_555
H22 N10 1.024294 1_555
H23 N11 1.024294 1_555
H24 N12 1.024294 1_555
H25 N13 1.024294 1_555
H26 N12 1.019778 1_555
H27 N13 1.019778 1_555
H28 N15 1.023507 1_555
H29 N14 1.023507 1_555
H30 N15 1.017570 1_555
H31 N14 1.017570 1_555
N0 P0 1.634457 1_555
N1 P1 1.634457 1_555
N2 P0 1.625664 1_555
N3 P1 1.625664 1_555
N4 P3 1.625664 1_555
N5 P2 1.625664 1_555
N6 P3 1.634457 1_555
N7 P2 1.634457 1_555
N8 P3 1.634457 1_555
N9 P2 1.634457 1_555
N10 P2 1.625664 1_555
N11 P3 1.625664 1_555
N12 P0 1.625664 1_655
N13 P1 1.625664 1_655
N14 P1 1.634457 1_655
N15 P0 1.634457 1_655
Cl0 H23 2.385344 1_455
Cl0 H8 2.385344 1_565
Cl0 H12 2.495859 1_555
Cl0 H18 2.495859 1_465
Cl0 H20 2.500827 1_455
Cl0 H10 2.500827 1_555
Cl0 H0 2.615553 1_555
Cl0 H30 2.615553 1_455
Cl1 H22 2.385344 1_445
Cl1 H9 2.385344 1_555
Cl1 H13 2.495859 1_545
Cl1 H19 2.495859 1_455
Cl1 H11 2.500827 1_555
Cl1 H21 2.500827 1_455
Cl1 H1 2.615553 1_555
Cl1 H31 2.615553 1_455
Cl2 H24 2.385344 1_545
Cl2 H6 2.385344 1_555
Cl2 H28 2.495859 1_555
Cl2 H2 2.495859 1_545
Cl2 H27 2.500827 1_554
Cl2 H5 2.500827 1_554
Cl2 H16 2.615553 1_555
Cl2 H14 2.615553 1_555
Cl3 H25 2.385344 1_555
Cl3 H7 2.385344 1_565
Cl3 H29 2.495859 1_565
Cl3 H3 2.495859 1_555
Cl3 H26 2.500827 1_556
Cl3 H4 2.500827 1_556
Cl3 H15 2.615553 1_555
Cl3 H17 2.615553 1_555
