# generated using pymatgen
data_Dy3Ni2
_symmetry_space_group_name_H-M   'P 1'
_cell_length_a   7.27800326
_cell_length_b   13.69014808
_cell_length_c   19.06523957
_cell_angle_alpha   104.44003165
_cell_angle_beta   90.00000000
_cell_angle_gamma   105.41519017
_symmetry_Int_Tables_number   1
_chemical_formula_structural   Dy3Ni2
_chemical_formula_sum   'Dy48 Ni32'
_cell_volume   1768.93710071
_cell_formula_units_Z   16
loop_
 _symmetry_equiv_pos_site_id
 _symmetry_equiv_pos_as_xyz
  1  'x, y, z'
loop_
 _atom_site_type_symbol
 _atom_site_label
 _atom_site_symmetry_multiplicity
 _atom_site_fract_x
 _atom_site_fract_y
 _atom_site_fract_z
 _atom_site_occupancy
  Dy  Dy0_0  1  0.07235154  0.14470357  0.18189901  1
  Dy  Dy0_1  1  0.07235154  0.14470357  0.68189902  1
  Dy  Dy0_2  1  0.07235154  0.64470357  0.18189902  1
  Dy  Dy0_3  1  0.07235154  0.64470357  0.68189902  1
  Dy  Dy0_4  1  0.57235154  0.14470357  0.18189901  1
  Dy  Dy0_5  1  0.57235154  0.14470357  0.68189902  1
  Dy  Dy0_6  1  0.57235154  0.64470357  0.18189902  1
  Dy  Dy0_7  1  0.57235154  0.64470357  0.68189902  1
  Dy  Dy1_0  1  0.42764847  0.35529643  0.31810099  1
  Dy  Dy1_1  1  0.42764847  0.35529643  0.81810099  1
  Dy  Dy1_2  1  0.42764847  0.85529643  0.31810099  1
  Dy  Dy1_3  1  0.42764847  0.85529643  0.81810098  1
  Dy  Dy1_4  1  0.92764847  0.35529643  0.31810099  1
  Dy  Dy1_5  1  0.92764846  0.35529643  0.81810099  1
  Dy  Dy1_6  1  0.92764847  0.85529643  0.31810099  1
  Dy  Dy1_7  1  0.92764847  0.85529643  0.81810098  1
  Dy  Dy2_0  1  0.29858219  0.09716488  0.33701086  1
  Dy  Dy2_1  1  0.29858219  0.09716488  0.83701086  1
  Dy  Dy2_2  1  0.29858220  0.59716489  0.33701086  1
  Dy  Dy2_3  1  0.29858220  0.59716489  0.83701086  1
  Dy  Dy2_4  1  0.79858220  0.09716488  0.33701086  1
  Dy  Dy2_5  1  0.79858220  0.09716488  0.83701086  1
  Dy  Dy2_6  1  0.79858220  0.59716489  0.33701086  1
  Dy  Dy2_7  1  0.79858220  0.59716489  0.83701086  1
  Dy  Dy3_0  1  0.20141781  0.40283512  0.16298914  1
  Dy  Dy3_1  1  0.20141781  0.40283512  0.66298914  1
  Dy  Dy3_2  1  0.20141781  0.90283512  0.16298914  1
  Dy  Dy3_3  1  0.20141781  0.90283512  0.66298914  1
  Dy  Dy3_4  1  0.70141781  0.40283512  0.16298914  1
  Dy  Dy3_5  1  0.70141781  0.40283512  0.66298914  1
  Dy  Dy3_6  1  0.70141781  0.90283512  0.16298914  1
  Dy  Dy3_7  1  0.70141781  0.90283512  0.66298914  1
  Dy  Dy4_0  1  0.43439030  0.36878110  0.00093433  1
  Dy  Dy4_1  1  0.43439030  0.36878110  0.50093433  1
  Dy  Dy4_2  1  0.43439030  0.86878110  0.00093433  1
  Dy  Dy4_3  1  0.43439030  0.86878110  0.50093433  1
  Dy  Dy4_4  1  0.93439030  0.36878110  0.00093433  1
  Dy  Dy4_5  1  0.93439030  0.36878110  0.50093433  1
  Dy  Dy4_6  1  0.93439030  0.86878110  0.00093433  1
  Dy  Dy4_7  1  0.93439030  0.86878110  0.50093433  1
  Dy  Dy5_0  1  0.06560970  0.13121890  0.49906567  1
  Dy  Dy5_1  1  0.06560970  0.13121890  0.99906567  1
  Dy  Dy5_2  1  0.06560970  0.63121890  0.49906567  1
  Dy  Dy5_3  1  0.06560970  0.63121890  0.99906567  1
  Dy  Dy5_4  1  0.56560970  0.13121890  0.49906567  1
  Dy  Dy5_5  1  0.56560970  0.13121890  0.99906567  1
  Dy  Dy5_6  1  0.56560970  0.63121890  0.49906567  1
  Dy  Dy5_7  1  0.56560970  0.63121890  0.99906567  1
  Ni  Ni0_0  1  0.12833801  0.25667652  0.38749641  1
  Ni  Ni0_1  1  0.12833801  0.25667651  0.88749641  1
  Ni  Ni0_2  1  0.12833801  0.75667651  0.38749641  1
  Ni  Ni0_3  1  0.12833801  0.75667652  0.88749641  1
  Ni  Ni0_4  1  0.62833801  0.25667652  0.38749641  1
  Ni  Ni0_5  1  0.62833801  0.25667651  0.88749641  1
  Ni  Ni0_6  1  0.62833801  0.75667651  0.38749641  1
  Ni  Ni0_7  1  0.62833801  0.75667652  0.88749641  1
  Ni  Ni1_0  1  0.37166199  0.24332349  0.11250359  1
  Ni  Ni1_1  1  0.37166199  0.24332349  0.61250359  1
  Ni  Ni1_2  1  0.37166199  0.74332349  0.11250359  1
  Ni  Ni1_3  1  0.37166199  0.74332349  0.61250359  1
  Ni  Ni1_4  1  0.87166199  0.24332349  0.11250359  1
  Ni  Ni1_5  1  0.87166199  0.24332349  0.61250359  1
  Ni  Ni1_6  1  0.87166199  0.74332349  0.11250359  1
  Ni  Ni1_7  1  0.87166199  0.74332349  0.61250359  1
  Ni  Ni2_0  1  0.23268961  0.46537972  0.42833020  1
  Ni  Ni2_1  1  0.23268961  0.46537972  0.92833020  1
  Ni  Ni2_2  1  0.23268960  0.96537971  0.42833020  1
  Ni  Ni2_3  1  0.23268961  0.96537972  0.92833020  1
  Ni  Ni2_4  1  0.73268961  0.46537972  0.42833020  1
  Ni  Ni2_5  1  0.73268961  0.46537972  0.92833020  1
  Ni  Ni2_6  1  0.73268961  0.96537971  0.42833020  1
  Ni  Ni2_7  1  0.73268961  0.96537972  0.92833020  1
  Ni  Ni3_0  1  0.26731039  0.03462029  0.07166981  1
  Ni  Ni3_1  1  0.26731039  0.03462028  0.57166980  1
  Ni  Ni3_2  1  0.26731039  0.53462029  0.07166981  1
  Ni  Ni3_3  1  0.26731039  0.53462029  0.57166980  1
  Ni  Ni3_4  1  0.76731039  0.03462029  0.07166981  1
  Ni  Ni3_5  1  0.76731040  0.03462028  0.57166980  1
  Ni  Ni3_6  1  0.76731039  0.53462029  0.07166981  1
  Ni  Ni3_7  1  0.76731039  0.53462029  0.57166980  1
loop_
_geom_bond_atom_site_label_1
_geom_bond_atom_site_label_2
_geom_bond_distance
_geom_bond_site_symmetry_2
Dy0_0 Ni1_4 2.765124 1_455
Dy0_0 Ni1_0 2.765129 1_555
Dy0_0 Ni3_4 2.873717 1_455
Dy0_0 Ni3_0 2.873722 1_555
Dy0_0 Dy3_0 3.517268 1_555
Dy0_0 Dy3_6 3.610352 1_445
Dy0_0 Dy3_2 3.610355 1_545
Dy0_0 Dy0_4 3.639002 1_555
Dy0_0 Dy0_4 3.639002 1_455
Dy0_0 Dy2_4 3.661881 1_455
Dy0_0 Dy2_0 3.661881 1_555
Dy0_0 Dy1_4 3.747594 1_455
Dy0_0 Dy1_0 3.747598 1_555
Dy0_0 Ni0_0 3.814661 1_555
Dy0_1 Ni1_5 2.765124 1_455
Dy0_1 Ni1_1 2.765129 1_555
Dy0_1 Ni3_5 2.873717 1_455
Dy0_1 Ni3_1 2.873722 1_555
Dy0_1 Dy3_1 3.517268 1_555
Dy0_1 Dy3_7 3.610352 1_445
Dy0_1 Dy3_3 3.610355 1_545
Dy0_1 Dy0_5 3.639002 1_455
Dy0_1 Dy0_5 3.639002 1_555
Dy0_1 Dy2_5 3.661881 1_455
Dy0_1 Dy2_1 3.661881 1_555
Dy0_1 Dy1_5 3.747594 1_455
Dy0_1 Dy1_1 3.747598 1_555
Dy0_1 Ni0_1 3.814661 1_555
Dy0_2 Ni1_6 2.765124 1_455
Dy0_2 Ni1_2 2.765129 1_555
Dy0_2 Ni3_6 2.873717 1_455
Dy0_2 Ni3_2 2.873722 1_555
Dy0_2 Dy3_2 3.517268 1_555
Dy0_2 Dy3_4 3.610352 1_455
Dy0_2 Dy3_0 3.610355 1_555
Dy0_2 Dy0_6 3.639002 1_455
Dy0_2 Dy0_6 3.639002 1_555
Dy0_2 Dy2_6 3.661881 1_455
Dy0_2 Dy2_2 3.661881 1_555
Dy0_2 Dy1_6 3.747594 1_455
Dy0_2 Dy1_2 3.747598 1_555
Dy0_2 Ni0_2 3.814661 1_555
Dy0_3 Ni1_7 2.765124 1_455
Dy0_3 Ni1_3 2.765129 1_555
Dy0_3 Ni3_7 2.873717 1_455
Dy0_3 Ni3_3 2.873722 1_555
Dy0_3 Dy3_3 3.517268 1_555
Dy0_3 Dy3_5 3.610352 1_455
Dy0_3 Dy3_1 3.610355 1_555
Dy0_3 Dy0_7 3.639002 1_555
Dy0_3 Dy0_7 3.639002 1_455
Dy0_3 Dy2_7 3.661881 1_455
Dy0_3 Dy2_3 3.661881 1_555
Dy0_3 Dy1_7 3.747594 1_455
Dy0_3 Dy1_3 3.747598 1_555
Dy0_3 Ni0_3 3.814661 1_555
Dy0_4 Ni1_0 2.765124 1_555
Dy0_4 Ni1_4 2.765129 1_555
Dy0_4 Ni3_0 2.873717 1_555
Dy0_4 Ni3_4 2.873722 1_555
Dy0_4 Dy3_4 3.517268 1_555
Dy0_4 Dy3_2 3.610352 1_545
Dy0_4 Dy3_6 3.610355 1_545
Dy0_4 Dy2_0 3.661881 1_555
Dy0_4 Dy2_4 3.661881 1_555
Dy0_4 Dy1_0 3.747594 1_555
Dy0_4 Dy1_4 3.747598 1_555
Dy0_4 Ni0_4 3.814661 1_555
Dy0_5 Ni1_1 2.765124 1_555
Dy0_5 Ni1_5 2.765129 1_555
Dy0_5 Ni3_1 2.873717 1_555
Dy0_5 Ni3_5 2.873722 1_555
Dy0_5 Dy3_5 3.517268 1_555
Dy0_5 Dy3_3 3.610352 1_545
Dy0_5 Dy3_7 3.610355 1_545
Dy0_5 Dy2_1 3.661881 1_555
Dy0_5 Dy2_5 3.661881 1_555
Dy0_5 Dy1_1 3.747594 1_555
Dy0_5 Dy1_5 3.747598 1_555
Dy0_5 Ni0_5 3.814661 1_555
Dy0_6 Ni1_2 2.765124 1_555
Dy0_6 Ni1_6 2.765129 1_555
Dy0_6 Ni3_2 2.873717 1_555
Dy0_6 Ni3_6 2.873722 1_555
Dy0_6 Dy3_6 3.517268 1_555
Dy0_6 Dy3_0 3.610352 1_555
Dy0_6 Dy3_4 3.610355 1_555
Dy0_6 Dy2_2 3.661881 1_555
Dy0_6 Dy2_6 3.661881 1_555
Dy0_6 Dy1_2 3.747594 1_555
Dy0_6 Dy1_6 3.747598 1_555
Dy0_6 Ni0_6 3.814661 1_555
Dy0_7 Ni1_3 2.765124 1_555
Dy0_7 Ni1_7 2.765129 1_555
Dy0_7 Ni3_3 2.873717 1_555
Dy0_7 Ni3_7 2.873722 1_555
Dy0_7 Dy3_7 3.517268 1_555
Dy0_7 Dy3_1 3.610352 1_555
Dy0_7 Dy3_5 3.610355 1_555
Dy0_7 Dy2_3 3.661881 1_555
Dy0_7 Dy2_7 3.661881 1_555
Dy0_7 Dy1_3 3.747594 1_555
Dy0_7 Dy1_7 3.747598 1_555
Dy0_7 Ni0_7 3.814661 1_555
Dy1_0 Ni0_4 2.765124 1_555
Dy1_0 Ni0_0 2.765129 1_555
Dy1_0 Ni2_4 2.873717 1_555
Dy1_0 Ni2_0 2.873722 1_555
Dy1_0 Dy2_0 3.517268 1_555
Dy1_0 Dy2_6 3.610352 1_555
Dy1_0 Dy2_2 3.610355 1_555
Dy1_0 Dy1_4 3.639002 1_555
Dy1_0 Dy1_4 3.639002 1_455
Dy1_0 Dy3_4 3.661881 1_555
Dy1_0 Dy3_0 3.661881 1_555
Dy1_0 Ni1_0 3.814661 1_555
Dy1_1 Ni0_5 2.765124 1_555
Dy1_1 Ni0_1 2.765129 1_555
Dy1_1 Ni2_5 2.873717 1_555
Dy1_1 Ni2_1 2.873722 1_555
Dy1_1 Dy2_1 3.517268 1_555
Dy1_1 Dy2_7 3.610352 1_555
Dy1_1 Dy2_3 3.610355 1_555
Dy1_1 Dy1_5 3.639002 1_555
Dy1_1 Dy1_5 3.639002 1_455
Dy1_1 Dy3_5 3.661881 1_555
Dy1_1 Dy3_1 3.661881 1_555
Dy1_1 Ni1_1 3.814661 1_555
Dy1_2 Ni0_6 2.765124 1_555
Dy1_2 Ni0_2 2.765129 1_555
Dy1_2 Ni2_6 2.873717 1_555
Dy1_2 Ni2_2 2.873722 1_555
Dy1_2 Dy2_2 3.517268 1_555
Dy1_2 Dy2_4 3.610352 1_565
Dy1_2 Dy2_0 3.610355 1_565
Dy1_2 Dy1_6 3.639002 1_455
Dy1_2 Dy1_6 3.639002 1_555
Dy1_2 Dy3_6 3.661881 1_555
Dy1_2 Dy3_2 3.661881 1_555
Dy1_2 Ni1_2 3.814661 1_555
Dy1_3 Ni0_7 2.765124 1_555
Dy1_3 Ni0_3 2.765129 1_555
Dy1_3 Ni2_7 2.873717 1_555
Dy1_3 Ni2_3 2.873722 1_555
Dy1_3 Dy2_3 3.517268 1_555
Dy1_3 Dy2_5 3.610352 1_565
Dy1_3 Dy2_1 3.610355 1_565
Dy1_3 Dy1_7 3.639002 1_455
Dy1_3 Dy1_7 3.639002 1_555
Dy1_3 Dy3_7 3.661881 1_555
Dy1_3 Dy3_3 3.661881 1_555
Dy1_3 Ni1_3 3.814661 1_555
Dy1_4 Ni0_0 2.765124 1_655
Dy1_4 Ni0_4 2.765129 1_555
Dy1_4 Ni2_0 2.873717 1_655
Dy1_4 Ni2_4 2.873722 1_555
Dy1_4 Dy2_4 3.517268 1_555
Dy1_4 Dy2_2 3.610352 1_655
Dy1_4 Dy2_6 3.610355 1_555
Dy1_4 Dy3_0 3.661881 1_655
Dy1_4 Dy3_4 3.661881 1_555
Dy1_4 Ni1_4 3.814661 1_555
Dy1_5 Ni0_1 2.765124 1_655
Dy1_5 Ni0_5 2.765129 1_555
Dy1_5 Ni2_1 2.873717 1_655
Dy1_5 Ni2_5 2.873722 1_555
Dy1_5 Dy2_5 3.517268 1_555
Dy1_5 Dy2_3 3.610352 1_655
Dy1_5 Dy2_7 3.610355 1_555
Dy1_5 Dy3_1 3.661881 1_655
Dy1_5 Dy3_5 3.661881 1_555
Dy1_5 Ni1_5 3.814661 1_555
Dy1_6 Ni0_2 2.765124 1_655
Dy1_6 Ni0_6 2.765129 1_555
Dy1_6 Ni2_2 2.873717 1_655
Dy1_6 Ni2_6 2.873722 1_555
Dy1_6 Dy2_6 3.517268 1_555
Dy1_6 Dy2_0 3.610352 1_665
Dy1_6 Dy2_4 3.610355 1_565
Dy1_6 Dy3_2 3.661881 1_655
Dy1_6 Dy3_6 3.661881 1_555
Dy1_6 Ni1_6 3.814661 1_555
Dy1_7 Ni0_3 2.765124 1_655
Dy1_7 Ni0_7 2.765129 1_555
Dy1_7 Ni2_3 2.873717 1_655
Dy1_7 Ni2_7 2.873722 1_555
Dy1_7 Dy2_7 3.517268 1_555
Dy1_7 Dy2_1 3.610352 1_665
Dy1_7 Dy2_5 3.610355 1_565
Dy1_7 Dy3_3 3.661881 1_655
Dy1_7 Dy3_7 3.661881 1_555
Dy1_7 Ni1_7 3.814661 1_555
Dy2_0 Ni0_4 2.760529 1_555
Dy2_0 Ni0_0 2.760529 1_555
Dy2_0 Ni2_2 2.760930 1_545
Dy2_0 Dy5_0 3.512820 1_555
Dy2_0 Dy5_4 3.512823 1_555
Dy2_0 Dy3_2 3.630856 1_545
Dy2_0 Dy2_4 3.639002 1_455
Dy2_0 Dy2_4 3.639002 1_555
Dy2_1 Ni0_5 2.760529 1_555
Dy2_1 Ni0_1 2.760529 1_555
Dy2_1 Ni2_3 2.760930 1_545
Dy2_1 Dy5_1 3.512820 1_555
Dy2_1 Dy5_5 3.512823 1_555
Dy2_1 Dy3_3 3.630856 1_545
Dy2_1 Dy2_5 3.639002 1_455
Dy2_1 Dy2_5 3.639002 1_555
Dy2_2 Ni0_6 2.760529 1_555
Dy2_2 Ni0_2 2.760529 1_555
Dy2_2 Ni2_0 2.760930 1_555
Dy2_2 Dy5_2 3.512820 1_555
Dy2_2 Dy5_6 3.512823 1_555
Dy2_2 Dy3_0 3.630856 1_555
Dy2_2 Dy2_6 3.639002 1_455
Dy2_2 Dy2_6 3.639002 1_555
Dy2_3 Ni0_7 2.760529 1_555
Dy2_3 Ni0_3 2.760529 1_555
Dy2_3 Ni2_1 2.760930 1_555
Dy2_3 Dy5_3 3.512820 1_555
Dy2_3 Dy5_7 3.512823 1_555
Dy2_3 Dy3_1 3.630856 1_555
Dy2_3 Dy2_7 3.639002 1_555
Dy2_3 Dy2_7 3.639002 1_455
Dy2_4 Ni0_0 2.760529 1_655
Dy2_4 Ni0_4 2.760529 1_555
Dy2_4 Ni2_6 2.760930 1_545
Dy2_4 Dy5_4 3.512820 1_555
Dy2_4 Dy5_0 3.512823 1_655
Dy2_4 Dy3_6 3.630856 1_545
Dy2_5 Ni0_1 2.760529 1_655
Dy2_5 Ni0_5 2.760529 1_555
Dy2_5 Ni2_7 2.760930 1_545
Dy2_5 Dy5_5 3.512820 1_555
Dy2_5 Dy5_1 3.512823 1_655
Dy2_5 Dy3_7 3.630856 1_545
Dy2_6 Ni0_2 2.760529 1_655
Dy2_6 Ni0_6 2.760529 1_555
Dy2_6 Ni2_4 2.760930 1_555
Dy2_6 Dy5_6 3.512820 1_555
Dy2_6 Dy5_2 3.512823 1_655
Dy2_6 Dy3_4 3.630856 1_555
Dy2_7 Ni0_3 2.760529 1_655
Dy2_7 Ni0_7 2.760529 1_555
Dy2_7 Ni2_5 2.760930 1_555
Dy2_7 Dy5_7 3.512820 1_555
Dy2_7 Dy5_3 3.512823 1_655
Dy2_7 Dy3_5 3.630856 1_555
Dy3_0 Ni1_4 2.760529 1_455
Dy3_0 Ni1_0 2.760529 1_555
Dy3_0 Ni3_2 2.760930 1_555
Dy3_0 Dy4_0 3.512820 1_555
Dy3_0 Dy4_4 3.512823 1_455
Dy3_0 Dy3_4 3.639002 1_455
Dy3_0 Dy3_4 3.639002 1_555
Dy3_1 Ni1_5 2.760529 1_455
Dy3_1 Ni1_1 2.760529 1_555
Dy3_1 Ni3_3 2.760930 1_555
Dy3_1 Dy4_1 3.512820 1_555
Dy3_1 Dy4_5 3.512823 1_455
Dy3_1 Dy3_5 3.639002 1_455
Dy3_1 Dy3_5 3.639002 1_555
Dy3_2 Ni1_6 2.760529 1_455
Dy3_2 Ni1_2 2.760529 1_555
Dy3_2 Ni3_0 2.760930 1_565
Dy3_2 Dy4_2 3.512820 1_555
Dy3_2 Dy4_6 3.512823 1_455
Dy3_2 Dy3_6 3.639002 1_455
Dy3_2 Dy3_6 3.639002 1_555
Dy3_3 Ni1_7 2.760529 1_455
Dy3_3 Ni1_3 2.760529 1_555
Dy3_3 Ni3_1 2.760930 1_565
Dy3_3 Dy4_3 3.512820 1_555
Dy3_3 Dy4_7 3.512823 1_455
Dy3_3 Dy3_7 3.639002 1_455
Dy3_3 Dy3_7 3.639002 1_555
Dy3_4 Ni1_0 2.760529 1_555
Dy3_4 Ni1_4 2.760529 1_555
Dy3_4 Ni3_6 2.760930 1_555
Dy3_4 Dy4_4 3.512820 1_555
Dy3_4 Dy4_0 3.512823 1_555
Dy3_5 Ni1_1 2.760529 1_555
Dy3_5 Ni1_5 2.760529 1_555
Dy3_5 Ni3_7 2.760930 1_555
Dy3_5 Dy4_5 3.512820 1_555
Dy3_5 Dy4_1 3.512823 1_555
Dy3_6 Ni1_2 2.760529 1_555
Dy3_6 Ni1_6 2.760529 1_555
Dy3_6 Ni3_4 2.760930 1_565
Dy3_6 Dy4_6 3.512820 1_555
Dy3_6 Dy4_2 3.512823 1_555
Dy3_7 Ni1_3 2.760529 1_555
Dy3_7 Ni1_7 2.760529 1_555
Dy3_7 Ni3_5 2.760930 1_565
Dy3_7 Dy4_7 3.512820 1_555
Dy3_7 Dy4_3 3.512823 1_555
Dy4_0 Ni2_5 2.786556 1_554
Dy4_0 Ni2_1 2.786556 1_554
Dy4_0 Ni3_2 2.896998 1_555
Dy4_0 Ni3_6 2.897002 1_555
Dy4_0 Ni0_1 2.919165 1_554
Dy4_0 Ni0_5 2.919165 1_554
Dy4_0 Ni1_0 3.014643 1_555
Dy4_0 Dy5_1 3.617170 1_554
Dy4_0 Dy5_5 3.617173 1_554
Dy4_1 Ni2_4 2.786556 1_555
Dy4_1 Ni2_0 2.786556 1_555
Dy4_1 Ni3_3 2.896998 1_555
Dy4_1 Ni3_7 2.897002 1_555
Dy4_1 Ni0_0 2.919165 1_555
Dy4_1 Ni0_4 2.919165 1_555
Dy4_1 Ni1_1 3.014643 1_555
Dy4_1 Dy5_0 3.617170 1_555
Dy4_1 Dy5_4 3.617173 1_555
Dy4_2 Ni2_7 2.786556 1_554
Dy4_2 Ni2_3 2.786556 1_554
Dy4_2 Ni3_0 2.896998 1_565
Dy4_2 Ni3_4 2.897002 1_565
Dy4_2 Ni0_3 2.919165 1_554
Dy4_2 Ni0_7 2.919165 1_554
Dy4_2 Ni1_2 3.014643 1_555
Dy4_2 Dy5_3 3.617170 1_554
Dy4_2 Dy5_7 3.617173 1_554
Dy4_3 Ni2_6 2.786556 1_555
Dy4_3 Ni2_2 2.786556 1_555
Dy4_3 Ni3_1 2.896998 1_565
Dy4_3 Ni3_5 2.897002 1_565
Dy4_3 Ni0_2 2.919165 1_555
Dy4_3 Ni0_6 2.919165 1_555
Dy4_3 Ni1_3 3.014643 1_555
Dy4_3 Dy5_2 3.617170 1_555
Dy4_3 Dy5_6 3.617173 1_555
Dy4_4 Ni2_1 2.786556 1_654
Dy4_4 Ni2_5 2.786556 1_554
Dy4_4 Ni3_6 2.896998 1_555
Dy4_4 Ni3_2 2.897002 1_655
Dy4_4 Ni0_5 2.919165 1_554
Dy4_4 Ni0_1 2.919165 1_654
Dy4_4 Ni1_4 3.014643 1_555
Dy4_4 Dy5_5 3.617170 1_554
Dy4_4 Dy5_1 3.617173 1_654
Dy4_5 Ni2_0 2.786556 1_655
Dy4_5 Ni2_4 2.786556 1_555
Dy4_5 Ni3_7 2.896998 1_555
Dy4_5 Ni3_3 2.897002 1_655
Dy4_5 Ni0_4 2.919165 1_555
Dy4_5 Ni0_0 2.919165 1_655
Dy4_5 Ni1_5 3.014643 1_555
Dy4_5 Dy5_4 3.617170 1_555
Dy4_5 Dy5_0 3.617173 1_655
Dy4_6 Ni2_3 2.786556 1_654
Dy4_6 Ni2_7 2.786556 1_554
Dy4_6 Ni3_4 2.896998 1_565
Dy4_6 Ni3_0 2.897002 1_665
Dy4_6 Ni0_7 2.919165 1_554
Dy4_6 Ni0_3 2.919165 1_654
Dy4_6 Ni1_6 3.014643 1_555
Dy4_6 Dy5_7 3.617170 1_554
Dy4_6 Dy5_3 3.617173 1_654
Dy4_7 Ni2_2 2.786556 1_655
Dy4_7 Ni2_6 2.786556 1_555
Dy4_7 Ni3_5 2.896998 1_565
Dy4_7 Ni3_1 2.897002 1_665
Dy4_7 Ni0_6 2.919165 1_555
Dy4_7 Ni0_2 2.919165 1_655
Dy4_7 Ni1_7 3.014643 1_555
Dy4_7 Dy5_6 3.617170 1_555
Dy4_7 Dy5_2 3.617173 1_655
Dy5_0 Ni3_5 2.786556 1_455
Dy5_0 Ni3_1 2.786556 1_555
Dy5_0 Ni2_2 2.896998 1_545
Dy5_0 Ni2_6 2.897002 1_445
Dy5_0 Ni1_1 2.919165 1_555
Dy5_0 Ni1_5 2.919165 1_455
Dy5_0 Ni0_0 3.014643 1_555
Dy5_1 Ni3_4 2.786556 1_456
Dy5_1 Ni3_0 2.786556 1_556
Dy5_1 Ni2_3 2.896998 1_545
Dy5_1 Ni2_7 2.897002 1_445
Dy5_1 Ni1_0 2.919165 1_556
Dy5_1 Ni1_4 2.919165 1_456
Dy5_1 Ni0_1 3.014643 1_555
Dy5_2 Ni3_7 2.786556 1_455
Dy5_2 Ni3_3 2.786556 1_555
Dy5_2 Ni2_0 2.896998 1_555
Dy5_2 Ni2_4 2.897002 1_455
Dy5_2 Ni1_3 2.919165 1_555
Dy5_2 Ni1_7 2.919165 1_455
Dy5_2 Ni0_2 3.014643 1_555
Dy5_3 Ni3_6 2.786556 1_456
Dy5_3 Ni3_2 2.786556 1_556
Dy5_3 Ni2_1 2.896998 1_555
Dy5_3 Ni2_5 2.897002 1_455
Dy5_3 Ni1_2 2.919165 1_556
Dy5_3 Ni1_6 2.919165 1_456
Dy5_3 Ni0_3 3.014643 1_555
Dy5_4 Ni3_1 2.786556 1_555
Dy5_4 Ni3_5 2.786556 1_555
Dy5_4 Ni2_6 2.896998 1_545
Dy5_4 Ni2_2 2.897002 1_545
Dy5_4 Ni1_5 2.919165 1_555
Dy5_4 Ni1_1 2.919165 1_555
Dy5_4 Ni0_4 3.014643 1_555
Dy5_5 Ni3_0 2.786556 1_556
Dy5_5 Ni3_4 2.786556 1_556
Dy5_5 Ni2_7 2.896998 1_545
Dy5_5 Ni2_3 2.897002 1_545
Dy5_5 Ni1_4 2.919165 1_556
Dy5_5 Ni1_0 2.919165 1_556
Dy5_5 Ni0_5 3.014643 1_555
Dy5_6 Ni3_3 2.786556 1_555
Dy5_6 Ni3_7 2.786556 1_555
Dy5_6 Ni2_4 2.896998 1_555
Dy5_6 Ni2_0 2.897002 1_555
Dy5_6 Ni1_7 2.919165 1_555
Dy5_6 Ni1_3 2.919165 1_555
Dy5_6 Ni0_6 3.014643 1_555
Dy5_7 Ni3_2 2.786556 1_556
Dy5_7 Ni3_6 2.786556 1_556
Dy5_7 Ni2_5 2.896998 1_555
Dy5_7 Ni2_1 2.897002 1_555
Dy5_7 Ni1_6 2.919165 1_556
Dy5_7 Ni1_2 2.919165 1_556
Dy5_7 Ni0_7 3.014643 1_555
Ni0_0 Ni2_0 2.661464 1_555
Ni0_1 Ni2_1 2.661464 1_555
Ni0_2 Ni2_2 2.661464 1_555
Ni0_3 Ni2_3 2.661464 1_555
Ni0_4 Ni2_4 2.661464 1_555
Ni0_5 Ni2_5 2.661464 1_555
Ni0_6 Ni2_6 2.661464 1_555
Ni0_7 Ni2_7 2.661464 1_555
Ni1_0 Ni3_0 2.661464 1_555
Ni1_1 Ni3_1 2.661464 1_555
Ni1_2 Ni3_2 2.661464 1_555
Ni1_3 Ni3_3 2.661464 1_555
Ni1_4 Ni3_4 2.661464 1_555
Ni1_5 Ni3_5 2.661464 1_555
Ni1_6 Ni3_6 2.661464 1_555
Ni1_7 Ni3_7 2.661464 1_555
Ni2_0 Ni3_3 2.647890 1_555
Ni2_1 Ni3_2 2.647890 1_556
Ni2_2 Ni3_1 2.647890 1_565
Ni2_3 Ni3_0 2.647890 1_566
Ni2_4 Ni3_7 2.647890 1_555
Ni2_5 Ni3_6 2.647890 1_556
Ni2_6 Ni3_5 2.647890 1_565
Ni2_7 Ni3_4 2.647890 1_566
