# generated using pymatgen
data_Li9Cr4(BO3)8
_symmetry_space_group_name_H-M   'P 1'
_cell_length_a   6.01728700
_cell_length_b   8.94602656
_cell_length_c   9.47189377
_cell_angle_alpha   113.69107350
_cell_angle_beta   90.11323189
_cell_angle_gamma   90.12868146
_symmetry_Int_Tables_number   1
_chemical_formula_structural   Li9Cr4(BO3)8
_chemical_formula_sum   'Li9 Cr4 B8 O24'
_cell_volume   466.90621476
_cell_formula_units_Z   1
loop_
 _symmetry_equiv_pos_site_id
 _symmetry_equiv_pos_as_xyz
  1  'x, y, z'
loop_
 _atom_site_type_symbol
 _atom_site_label
 _atom_site_symmetry_multiplicity
 _atom_site_fract_x
 _atom_site_fract_y
 _atom_site_fract_z
 _atom_site_occupancy
  Li  Li0  1  0.29051100  0.13009600  0.92958000  1
  Li  Li1  1  0.06808700  0.29128700  0.82342900  1
  Li  Li2  1  0.25224300  0.14597900  0.41644400  1
  Li  Li3  1  0.72518200  0.37906700  0.49858300  1
  Li  Li4  1  0.25159700  0.61444600  0.98836800  1
  Li  Li5  1  0.74383500  0.38139900  0.01601100  1
  Li  Li6  1  0.24195400  0.60979400  0.48744400  1
  Li  Li7  1  0.58686700  0.72478400  0.66159700  1
  Li  Li8  1  0.91192000  0.72618600  0.15853000  1
  Cr  Cr0  1  0.53461700  0.22765900  0.71909100  1
  Cr  Cr1  1  0.03838000  0.76414900  0.77965600  1
  Cr  Cr2  1  0.45771300  0.76800000  0.27998800  1
  Cr  Cr3  1  0.96940000  0.22934700  0.21851000  1
  B  B0  1  0.72041800  0.04955400  0.92442600  1
  B  B1  1  0.78268800  0.05291900  0.42214800  1
  B  B2  1  0.34764200  0.45590900  0.69166500  1
  B  B3  1  0.84199500  0.53877400  0.80628600  1
  B  B4  1  0.15577200  0.45398500  0.18801700  1
  B  B5  1  0.65356200  0.54185500  0.30735400  1
  B  B6  1  0.22216200  0.94889800  0.58341100  1
  B  B7  1  0.27759300  0.94846500  0.08033200  1
  O  O0  1  0.60273100  0.17123800  0.89998800  1
  O  O1  1  0.25769800  0.10300600  0.70353100  1
  O  O2  1  0.72318500  0.08970900  0.57657200  1
  O  O3  1  0.90208600  0.17434800  0.40063500  1
  O  O4  1  0.22701900  0.09655100  0.19729800  1
  O  O5  1  0.78454900  0.39172000  0.81289600  1
  O  O6  1  0.33638800  0.42142900  0.82391400  1
  O  O7  1  0.77974600  0.08798000  0.07801500  1
  O  O8  1  0.43791300  0.32236300  0.56921800  1
  O  O9  1  0.72662000  0.39868700  0.30482300  1
  O  O10  1  0.95574100  0.65796800  0.92751400  1
  O  O11  1  0.15735200  0.42092600  0.31822200  1
  O  O12  1  0.81624800  0.57238100  0.67678400  1
  O  O13  1  0.07113400  0.32116600  0.05771100  1
  O  O14  1  0.29472500  0.60104700  0.68812100  1
  O  O15  1  0.53763400  0.66161500  0.42685800  1
  O  O16  1  0.23605400  0.92446200  0.93082800  1
  O  O17  1  0.67117700  0.58610500  0.18035300  1
  O  O18  1  0.20610300  0.60313800  0.18797500  1
  O  O19  1  0.76846100  0.90186500  0.81408200  1
  O  O20  1  0.12589000  0.82390800  0.60486700  1
  O  O21  1  0.29746400  0.93408900  0.43704400  1
  O  O22  1  0.73124400  0.90366800  0.31203500  1
  O  O23  1  0.36558000  0.82592000  0.11722300  1
loop_
_geom_bond_atom_site_label_1
_geom_bond_atom_site_label_2
_geom_bond_distance
_geom_bond_site_symmetry_2
Li0 O16 1.872553 1_545
Li0 O0 1.955885 1_555
Li0 O1 2.064753 1_555
Li0 O13 2.118163 1_556
Li0 Li1 2.459700 1_555
Li1 O5 1.950984 1_455
Li1 O1 1.976138 1_555
Li1 O6 1.987251 1_555
Li1 O13 2.125867 1_556
Li2 O4 1.946295 1_555
Li2 O8 1.995700 1_555
Li2 O21 2.001162 1_545
Li2 O3 2.134937 1_455
Li3 O9 1.912599 1_555
Li3 O12 1.945866 1_555
Li3 O8 1.991560 1_555
Li3 O3 1.998798 1_555
Li4 O6 1.874552 1_555
Li4 O23 1.916889 1_556
Li4 O18 1.953299 1_556
Li4 O10 1.957685 1_455
Li5 O17 1.919215 1_555
Li5 O0 1.947350 1_554
Li5 O5 1.978480 1_554
Li5 O13 2.120809 1_655
Li5 O9 2.679428 1_555
Li6 O11 1.870741 1_555
Li6 O20 1.921159 1_555
Li6 O14 1.958881 1_555
Li6 O15 1.980879 1_555
Li7 O19 1.984174 1_555
Li7 O12 1.987442 1_555
Li7 O15 2.082702 1_555
Li7 O14 2.143637 1_555
Li8 O17 1.978093 1_555
Li8 O22 1.993944 1_555
Li8 O10 2.039579 1_554
Li8 O18 2.162543 1_655
Cr0 O2 1.818338 1_555
Cr0 O1 1.974954 1_555
Cr0 O8 2.009243 1_555
Cr0 O6 2.011058 1_555
Cr0 O0 2.012902 1_555
Cr0 O5 2.035234 1_555
Cr1 O16 1.963997 1_555
Cr1 O19 1.987557 1_455
Cr1 O20 2.004365 1_555
Cr1 O10 2.044666 1_455
Cr1 O14 2.063688 1_555
Cr1 O12 2.078555 1_455
Cr2 O21 1.893769 1_555
Cr2 O23 1.895392 1_555
Cr2 O22 1.991786 1_555
Cr2 O17 1.992110 1_555
Cr2 O15 2.033638 1_555
Cr2 O18 2.044214 1_555
Cr3 O7 1.818711 1_555
Cr3 O4 1.916354 1_655
Cr3 O11 1.948002 1_655
Cr3 O3 2.016423 1_555
Cr3 O9 2.029015 1_555
Cr3 O13 2.091892 1_655
B0 O19 1.347143 1_545
B0 O0 1.394776 1_555
B0 O7 1.399111 1_556
B1 O22 1.358000 1_545
B1 O3 1.383009 1_555
B1 O2 1.411280 1_555
B2 O14 1.351007 1_555
B2 O8 1.399794 1_555
B2 O6 1.406986 1_555
B3 O12 1.383773 1_555
B3 O5 1.385030 1_555
B3 O10 1.390559 1_555
B4 O18 1.367758 1_555
B4 O11 1.378997 1_555
B4 O13 1.418040 1_555
B5 O9 1.346157 1_555
B5 O15 1.395579 1_555
B5 O17 1.413506 1_555
B6 O20 1.344376 1_555
B6 O1 1.406450 1_565
B6 O21 1.414230 1_555
B7 O16 1.366706 1_554
B7 O4 1.377951 1_565
B7 O23 1.383467 1_555
