# generated using pymatgen
data_Li6V2OF11
_symmetry_space_group_name_H-M   'P 1'
_cell_length_a   5.11361683
_cell_length_b   5.50394357
_cell_length_c   8.97679953
_cell_angle_alpha   85.19202139
_cell_angle_beta   73.26236385
_cell_angle_gamma   117.56988169
_symmetry_Int_Tables_number   1
_chemical_formula_structural   Li6V2OF11
_chemical_formula_sum   'Li6 V2 O1 F11'
_cell_volume   207.34157969
_cell_formula_units_Z   1
loop_
 _symmetry_equiv_pos_site_id
 _symmetry_equiv_pos_as_xyz
  1  'x, y, z'
loop_
 _atom_site_type_symbol
 _atom_site_label
 _atom_site_symmetry_multiplicity
 _atom_site_fract_x
 _atom_site_fract_y
 _atom_site_fract_z
 _atom_site_occupancy
  Li  Li0  1  0.14702100  0.34803900  0.05771800  1
  Li  Li1  1  0.36281500  0.40447100  0.69158100  1
  Li  Li2  1  0.64849800  0.60844600  0.33380900  1
  Li  Li3  1  0.82330900  0.61704600  0.93123000  1
  Li  Li4  1  0.88302800  0.15362100  0.41347200  1
  Li  Li5  1  0.64096800  0.13114800  0.81502300  1
  V  V0  1  0.16946600  0.89468300  0.56718800  1
  V  V1  1  0.34613100  0.85760000  0.17779900  1
  O  O0  1  0.37483600  0.87522000  0.37265500  1
  F  F0  1  0.07391200  0.55233800  0.70513600  1
  F  F1  1  0.07491000  0.02541100  0.21668400  1
  F  F2  1  0.56253500  0.64696900  0.13342300  1
  F  F3  1  0.25336100  0.27029800  0.47053300  1
  F  F4  1  0.25422600  0.78215200  0.98064300  1
  F  F5  1  0.76862200  0.72482100  0.53131000  1
  F  F6  1  0.72990300  0.20164700  0.04092600  1
  F  F7  1  0.45529300  0.37411500  0.87510200  1
  F  F8  1  0.55148800  0.10785800  0.61315600  1
  F  F9  1  0.95683900  0.48238300  0.27283200  1
  F  F10  1  0.95273800  0.96941300  0.76400100  1
loop_
_geom_bond_atom_site_label_1
_geom_bond_atom_site_label_2
_geom_bond_distance
_geom_bond_site_symmetry_2
Li2 O0 2.437750 1_555
Li4 O0 2.488377 1_545
O0 V0 1.800851 1_555
O0 V1 1.803812 1_555
F0 V0 1.931503 1_555
F0 Li1 1.971219 1_555
F0 Li5 2.203760 1_455
F0 Li3 2.221240 1_455
F1 V1 1.964544 1_545
F1 Li0 1.997885 1_555
F1 Li4 2.105440 1_455
F1 Li2 2.183975 1_445
F2 V1 1.933462 1_555
F2 Li2 1.987899 1_555
F2 Li3 1.989739 1_554
F2 Li0 2.338087 1_555
F3 Li4 1.936275 1_455
F3 Li2 1.939235 1_555
F3 V0 1.968449 1_545
F3 Li1 2.301917 1_555
F4 V1 1.986765 1_556
F4 Li5 2.030405 1_565
F4 Li3 2.157576 1_455
F4 Li0 2.186342 1_556
F5 V0 1.958608 1_655
F5 Li1 1.988276 1_555
F5 Li2 2.093871 1_555
F5 Li4 2.231193 1_565
F6 V1 1.930792 1_545
F6 Li0 1.958631 1_655
F6 Li3 2.183105 1_554
F6 Li5 2.229228 1_554
F7 Li1 1.855074 1_555
F7 Li0 1.858929 1_556
F7 Li3 1.978144 1_555
F7 Li5 1.995481 1_555
F8 V0 1.946002 1_545
F8 Li4 1.982296 1_555
F8 Li5 1.992939 1_555
F8 Li1 2.313242 1_555
F9 Li4 1.928985 1_555
F9 Li2 1.961219 1_555
F9 V1 1.968900 1_655
F9 Li0 2.246055 1_655
F10 V0 1.983638 1_655
F10 Li3 2.050464 1_555
F10 Li5 2.122583 1_565
F10 Li1 2.204446 1_665
F10 F3 2.573969 1_665
F10 F5 2.737294 1_555
