# generated using pymatgen
data_Li6Bi(BO3)3
_symmetry_space_group_name_H-M   'P 1'
_cell_length_a   16.73113000
_cell_length_b   6.80006700
_cell_length_c   7.35578357
_cell_angle_alpha   74.40731870
_cell_angle_beta   90.00000000
_cell_angle_gamma   90.00000000
_symmetry_Int_Tables_number   1
_chemical_formula_structural   Li6Bi(BO3)3
_chemical_formula_sum   'Li24 Bi4 B12 O36'
_cell_volume   806.08805987
_cell_formula_units_Z   4
loop_
 _symmetry_equiv_pos_site_id
 _symmetry_equiv_pos_as_xyz
  1  'x, y, z'
loop_
 _atom_site_type_symbol
 _atom_site_label
 _atom_site_symmetry_multiplicity
 _atom_site_fract_x
 _atom_site_fract_y
 _atom_site_fract_z
 _atom_site_occupancy
  Li  Li0  1  0.00162100  0.32261100  0.07117800  1
  Li  Li1  1  0.44937100  0.42226100  0.14395800  1
  Li  Li2  1  0.49837900  0.82261100  0.07117800  1
  Li  Li3  1  0.53624500  0.05494900  0.30410000  1
  Li  Li4  1  0.05062900  0.92226100  0.14395800  1
  Li  Li5  1  0.29365100  0.36825500  0.28800900  1
  Li  Li6  1  0.96375500  0.55494900  0.30410000  1
  Li  Li7  1  0.70453100  0.05263500  0.43464400  1
  Li  Li8  1  0.03041300  0.16893100  0.45575000  1
  Li  Li9  1  0.20634900  0.86825500  0.28800900  1
  Li  Li10  1  0.79546900  0.55263500  0.43464400  1
  Li  Li11  1  0.46958700  0.66893100  0.45575000  1
  Li  Li12  1  0.53041300  0.33106900  0.54425000  1
  Li  Li13  1  0.20453100  0.44736500  0.56535600  1
  Li  Li14  1  0.79365100  0.13174500  0.71199100  1
  Li  Li15  1  0.96958700  0.83106900  0.54425000  1
  Li  Li16  1  0.29546900  0.94736500  0.56535600  1
  Li  Li17  1  0.03624500  0.44505100  0.69590000  1
  Li  Li18  1  0.70634900  0.63174500  0.71199100  1
  Li  Li19  1  0.94937100  0.07773900  0.85604200  1
  Li  Li20  1  0.46375500  0.94505100  0.69590000  1
  Li  Li21  1  0.50162100  0.17738900  0.92882200  1
  Li  Li22  1  0.55062900  0.57773900  0.85604200  1
  Li  Li23  1  0.99837900  0.67738900  0.92882200  1
  Bi  Bi0  1  0.81329400  0.34619400  0.07532000  1
  Bi  Bi1  1  0.68670600  0.84619400  0.07532000  1
  Bi  Bi2  1  0.31329400  0.15380600  0.92468000  1
  Bi  Bi3  1  0.18670600  0.65380600  0.92468000  1
  B  B0  1  0.63303600  0.34049100  0.07979400  1
  B  B1  1  0.86696400  0.84049100  0.07979400  1
  B  B2  1  0.11803900  0.49396900  0.29486800  1
  B  B3  1  0.88659700  0.18366500  0.44232300  1
  B  B4  1  0.38196100  0.99396900  0.29486800  1
  B  B5  1  0.61340300  0.68366500  0.44232300  1
  B  B6  1  0.38659700  0.31633500  0.55767700  1
  B  B7  1  0.61803900  0.00603100  0.70513200  1
  B  B8  1  0.11340300  0.81633500  0.55767700  1
  B  B9  1  0.88196100  0.50603100  0.70513200  1
  B  B10  1  0.13303600  0.15950900  0.92020600  1
  B  B11  1  0.36696400  0.65950900  0.92020600  1
  O  O0  1  0.33088300  0.47198000  0.00914200  1
  O  O1  1  0.42936700  0.03246100  0.13131800  1
  O  O2  1  0.55143000  0.32281000  0.08458200  1
  O  O3  1  0.68273000  0.17332600  0.15330800  1
  O  O4  1  0.16911700  0.97198000  0.00914200  1
  O  O5  1  0.07063300  0.53246100  0.13131800  1
  O  O6  1  0.30129500  0.04923200  0.27071200  1
  O  O7  1  0.94857000  0.82281000  0.08458200  1
  O  O8  1  0.81727000  0.67332600  0.15330800  1
  O  O9  1  0.93349800  0.26455500  0.28092200  1
  O  O10  1  0.19870500  0.54923200  0.27071200  1
  O  O11  1  0.56650200  0.76455500  0.28092200  1
  O  O12  1  0.80501100  0.22277600  0.42783600  1
  O  O13  1  0.42349800  0.42893700  0.39518900  1
  O  O14  1  0.58631400  0.09120900  0.52992000  1
  O  O15  1  0.08631400  0.40879100  0.47008000  1
  O  O16  1  0.69498900  0.72277600  0.42783600  1
  O  O17  1  0.92349800  0.07106300  0.60481100  1
  O  O18  1  0.07650200  0.92893700  0.39518900  1
  O  O19  1  0.30501100  0.27722400  0.57216400  1
  O  O20  1  0.91368600  0.59120900  0.52992000  1
  O  O21  1  0.41368600  0.90879100  0.47008000  1
  O  O22  1  0.57650200  0.57106300  0.60481100  1
  O  O23  1  0.19498900  0.77722400  0.57216400  1
  O  O24  1  0.43349800  0.23544500  0.71907800  1
  O  O25  1  0.80129500  0.45076800  0.72928800  1
  O  O26  1  0.06650200  0.73544500  0.71907800  1
  O  O27  1  0.18273000  0.32667400  0.84669200  1
  O  O28  1  0.05143000  0.17719000  0.91541800  1
  O  O29  1  0.69870500  0.95076800  0.72928800  1
  O  O30  1  0.92936700  0.46753900  0.86868200  1
  O  O31  1  0.83088300  0.02802000  0.99085800  1
  O  O32  1  0.31727000  0.82667400  0.84669200  1
  O  O33  1  0.44857000  0.67719000  0.91541800  1
  O  O34  1  0.57063300  0.96753900  0.86868200  1
  O  O35  1  0.66911700  0.52802000  0.99085800  1
loop_
_geom_bond_atom_site_label_1
_geom_bond_atom_site_label_2
_geom_bond_distance
_geom_bond_site_symmetry_2
Li0 O9 1.872920 1_455
Li0 O28 1.895827 1_554
Li0 O30 1.965240 1_454
Li0 O5 1.976003 1_555
Li1 O13 1.910408 1_555
Li1 O2 1.929419 1_555
Li1 O33 2.065119 1_554
Li1 O0 2.201715 1_555
Li2 O11 1.872920 1_555
Li2 O33 1.895827 1_554
Li2 O34 1.965240 1_554
Li2 O1 1.976003 1_565
Li3 O14 1.934409 1_555
Li3 O11 2.089442 1_545
Li3 O2 2.099641 1_555
Li3 O1 2.222790 1_555
Li3 O21 2.455779 1_545
Li3 O3 2.721213 1_555
Li4 O18 1.910408 1_555
Li4 O7 1.929419 1_455
Li4 O28 2.065119 1_564
Li4 O4 2.201715 1_555
Li5 O10 1.992493 1_555
Li5 O19 2.023018 1_555
Li5 O0 2.077379 1_555
Li5 O6 2.210685 1_555
Li5 O13 2.384623 1_555
Li6 O20 1.934409 1_555
Li6 O9 2.089442 1_555
Li6 O7 2.099641 1_555
Li6 O5 2.222790 1_655
Li6 O15 2.455779 1_655
Li6 O8 2.721213 1_555
Li7 O12 2.033761 1_555
Li7 O3 2.043566 1_555
Li7 O29 2.092747 1_545
Li7 O14 2.137966 1_555
Li7 O16 2.262679 1_545
Li8 O15 1.907530 1_555
Li8 O18 1.961441 1_545
Li8 O9 2.063085 1_455
Li8 O17 2.110137 1_455
Li9 O6 1.992493 1_565
Li9 O23 2.023018 1_555
Li9 O4 2.077379 1_555
Li9 O10 2.210685 1_555
Li9 O18 2.384623 1_555
Li10 O16 2.033761 1_555
Li10 O8 2.043566 1_555
Li10 O25 2.092747 1_555
Li10 O20 2.137966 1_555
Li10 O12 2.262679 1_555
Li11 O21 1.907530 1_555
Li11 O13 1.961441 1_555
Li11 O11 2.063085 1_555
Li11 O22 2.110137 1_555
Li12 O14 1.907530 1_555
Li12 O22 1.961441 1_555
Li12 O24 2.063085 1_555
Li12 O13 2.110137 1_555
Li13 O19 2.033761 1_555
Li13 O27 2.043566 1_555
Li13 O10 2.092747 1_555
Li13 O15 2.137966 1_555
Li13 O23 2.262679 1_555
Li14 O29 1.992493 1_545
Li14 O12 2.023018 1_555
Li14 O31 2.077379 1_555
Li14 O25 2.210685 1_555
Li14 O17 2.384623 1_555
Li15 O20 1.907530 1_555
Li15 O17 1.961441 1_565
Li15 O26 2.063085 1_655
Li15 O18 2.110137 1_655
Li16 O23 2.033761 1_555
Li16 O32 2.043566 1_555
Li16 O6 2.092747 1_565
Li16 O21 2.137966 1_555
Li16 O19 2.262679 1_565
Li17 O15 1.934409 1_555
Li17 O26 2.089442 1_555
Li17 O28 2.099641 1_555
Li17 O30 2.222790 1_455
Li17 O20 2.455779 1_455
Li17 O27 2.721213 1_555
Li18 O25 1.992493 1_555
Li18 O16 2.023018 1_555
Li18 O35 2.077379 1_555
Li18 O29 2.210685 1_555
Li18 O22 2.384623 1_555
Li19 O17 1.910408 1_555
Li19 O28 1.929419 1_655
Li19 O7 2.065119 1_546
Li19 O31 2.201715 1_555
Li20 O21 1.934409 1_555
Li20 O24 2.089442 1_565
Li20 O33 2.099641 1_555
Li20 O34 2.222790 1_555
Li20 O14 2.455779 1_565
Li20 O32 2.721213 1_555
Li21 O24 1.872920 1_555
Li21 O2 1.895827 1_556
Li21 O1 1.965240 1_556
Li21 O34 1.976003 1_545
Li22 O22 1.910408 1_555
Li22 O33 1.929419 1_555
Li22 O2 2.065119 1_556
Li22 O35 2.201715 1_555
Li23 O26 1.872920 1_655
Li23 O7 1.895827 1_556
Li23 O5 1.965240 1_656
Li23 O30 1.976003 1_555
Bi0 O31 2.424133 1_554
Bi0 O8 2.442957 1_555
Bi0 O25 2.460014 1_554
Bi0 O30 2.467481 1_554
Bi0 O3 2.473937 1_555
Bi0 O9 2.487729 1_555
Bi0 O12 2.505483 1_555
Bi0 O35 2.705681 1_554
Bi1 O35 2.424133 1_554
Bi1 O3 2.442957 1_565
Bi1 O29 2.460014 1_554
Bi1 O34 2.467481 1_554
Bi1 O8 2.473937 1_555
Bi1 O11 2.487729 1_555
Bi1 O16 2.505483 1_555
Bi1 O31 2.705681 1_564
Bi2 O0 2.424133 1_556
Bi2 O32 2.442957 1_545
Bi2 O6 2.460014 1_556
Bi2 O1 2.467481 1_556
Bi2 O27 2.473937 1_555
Bi2 O24 2.487729 1_555
Bi2 O19 2.505483 1_555
Bi2 O4 2.705681 1_546
Bi3 O4 2.424133 1_556
Bi3 O27 2.442957 1_555
Bi3 O10 2.460014 1_556
Bi3 O5 2.467481 1_556
Bi3 O32 2.473937 1_555
Bi3 O26 2.487729 1_555
Bi3 O23 2.505483 1_555
Bi3 O0 2.705681 1_556
B0 O2 1.370266 1_555
B0 O3 1.394779 1_555
B0 O35 1.403594 1_554
B1 O7 1.370266 1_555
B1 O8 1.394779 1_555
B1 O31 1.403594 1_564
B2 O15 1.370029 1_555
B2 O10 1.399430 1_555
B2 O5 1.405569 1_555
B3 O17 1.379871 1_555
B3 O12 1.389298 1_555
B3 O9 1.405977 1_555
B4 O21 1.370029 1_555
B4 O6 1.399430 1_565
B4 O1 1.405569 1_565
B5 O22 1.379871 1_555
B5 O16 1.389298 1_555
B5 O11 1.405977 1_555
B6 O13 1.379871 1_555
B6 O19 1.389298 1_555
B6 O24 1.405977 1_555
B7 O14 1.370029 1_555
B7 O29 1.399430 1_545
B7 O34 1.405569 1_545
B8 O18 1.379871 1_555
B8 O23 1.389298 1_555
B8 O26 1.405977 1_555
B9 O20 1.370029 1_555
B9 O25 1.399430 1_555
B9 O30 1.405569 1_555
B10 O28 1.370266 1_555
B10 O27 1.394779 1_555
B10 O4 1.403594 1_546
B11 O33 1.370266 1_555
B11 O32 1.394779 1_555
B11 O0 1.403594 1_556
