# generated using pymatgen
data_LiV5H18N2O19
_symmetry_space_group_name_H-M   'P 1'
_cell_length_a   8.58116400
_cell_length_b   10.31353046
_cell_length_c   11.30350207
_cell_angle_alpha   111.71414192
_cell_angle_beta   86.54934119
_cell_angle_gamma   112.92401209
_symmetry_Int_Tables_number   1
_chemical_formula_structural   LiV5H18N2O19
_chemical_formula_sum   'Li2 V10 H36 N4 O38'
_cell_volume   851.86913370
_cell_formula_units_Z   2
loop_
 _symmetry_equiv_pos_site_id
 _symmetry_equiv_pos_as_xyz
  1  'x, y, z'
loop_
 _atom_site_type_symbol
 _atom_site_label
 _atom_site_symmetry_multiplicity
 _atom_site_fract_x
 _atom_site_fract_y
 _atom_site_fract_z
 _atom_site_occupancy
  Li  Li0  1  0.43492500  0.33961400  0.86441500  1
  Li  Li1  1  0.56507500  0.66038600  0.13558500  1
  V  V0  1  0.96595200  0.79868900  0.76651900  1
  V  V1  1  0.03404800  0.20131100  0.23348100  1
  V  V2  1  0.81124500  0.50303400  0.51933500  1
  V  V3  1  0.18875500  0.49696600  0.48066500  1
  V  V4  1  0.97626800  0.49626000  0.25626700  1
  V  V5  1  0.02373200  0.50374000  0.74373300  1
  V  V6  1  0.12627700  0.79070700  0.50327100  1
  V  V7  1  0.87372300  0.20929300  0.49672900  1
  V  V8  1  0.32983600  0.79000400  0.72598400  1
  V  V9  1  0.67016400  0.20999600  0.27401600  1
  H  H0  1  0.76199800  0.56535800  0.93614700  1
  H  H1  1  0.23800200  0.43464200  0.06385300  1
  H  H2  1  0.75181200  0.49615500  0.03809200  1
  H  H3  1  0.24818800  0.50384500  0.96190800  1
  H  H4  1  0.42779900  0.46230200  0.27574800  1
  H  H5  1  0.57220100  0.53769800  0.72425200  1
  H  H6  1  0.60505300  0.46358500  0.23132100  1
  H  H7  1  0.39494700  0.53641500  0.76867900  1
  H  H8  1  0.12022300  0.08926900  0.72540300  1
  H  H9  1  0.87977700  0.91073100  0.27459700  1
  H  H10  1  0.10451200  0.24601500  0.76448400  1
  H  H11  1  0.89548800  0.75398500  0.23551600  1
  H  H12  1  0.49539000  0.09472800  0.67654400  1
  H  H13  1  0.50461000  0.90527200  0.32345600  1
  H  H14  1  0.63888800  0.25147900  0.67926400  1
  H  H15  1  0.36111200  0.74852100  0.32073600  1
  H  H16  1  0.33256200  0.10322700  0.93663100  1
  H  H17  1  0.66743800  0.89677300  0.06336900  1
  H  H18  1  0.41154200  0.25341200  0.05736200  1
  H  H19  1  0.58845800  0.74658800  0.94263800  1
  H  H20  1  0.25535600  0.08917600  0.45623400  1
  H  H21  1  0.74464400  0.91082400  0.54376600  1
  H  H22  1  0.40746600  0.25956900  0.46272600  1
  H  H23  1  0.59253400  0.74043100  0.53727400  1
  H  H24  1  0.38429600  0.21126900  0.59210700  1
  H  H25  1  0.61570400  0.78873100  0.40789300  1
  H  H26  1  0.23442700  0.25455900  0.54358300  1
  H  H27  1  0.76557300  0.74544100  0.45641700  1
  H  H28  1  0.22976000  0.92891300  0.12086900  1
  H  H29  1  0.77024000  0.07108700  0.87913100  1
  H  H30  1  0.14961200  0.74822200  0.12010200  1
  H  H31  1  0.85038800  0.25177800  0.87989800  1
  H  H32  1  0.16702900  0.77893000  0.98217400  1
  H  H33  1  0.83297100  0.22107000  0.01782600  1
  H  H34  1  0.34506800  0.82134700  0.06962500  1
  H  H35  1  0.65493200  0.17865300  0.93037500  1
  N  N0  1  0.32022300  0.20351900  0.51277300  1
  N  N1  1  0.67977700  0.79648100  0.48722700  1
  N  N2  1  0.22301200  0.81966400  0.07404200  1
  N  N3  1  0.77698800  0.18033600  0.92595800  1
  O  O0  1  0.15844800  0.88948300  0.41156800  1
  O  O1  1  0.84155200  0.11051700  0.58843200  1
  O  O2  1  0.00661000  0.60452700  0.17161600  1
  O  O3  1  0.99339000  0.39547300  0.82838400  1
  O  O4  1  0.88263500  0.90760700  0.86676900  1
  O  O5  1  0.11736500  0.09239300  0.13323100  1
  O  O6  1  0.52225000  0.89099600  0.79675200  1
  O  O7  1  0.47775000  0.10900400  0.20324800  1
  O  O8  1  0.01830800  0.87700800  0.63716900  1
  O  O9  1  0.98169200  0.12299200  0.36283100  1
  O  O10  1  0.76095100  0.63398700  0.64747100  1
  O  O11  1  0.23904900  0.36601300  0.35252900  1
  O  O12  1  0.75257100  0.36714800  0.20682900  1
  O  O13  1  0.24742900  0.63285200  0.79317100  1
  O  O14  1  0.32766900  0.87282500  0.60185200  1
  O  O15  1  0.67233100  0.12717500  0.39814800  1
  O  O16  1  0.62421700  0.37289900  0.42509000  1
  O  O17  1  0.37578300  0.62710100  0.57491000  1
  O  O18  1  0.93725800  0.64239300  0.83326200  1
  O  O19  1  0.06274200  0.35760700  0.16673800  1
  O  O20  1  0.19709600  0.88490900  0.82601300  1
  O  O21  1  0.80290400  0.11509100  0.17398700  1
  O  O22  1  0.89585300  0.62567800  0.41924600  1
  O  O23  1  0.10414700  0.37432200  0.58075400  1
  O  O24  1  0.81578900  0.37985900  0.61685400  1
  O  O25  1  0.18421100  0.62014100  0.38314600  1
  O  O26  1  0.06449000  0.62095200  0.60421000  1
  O  O27  1  0.93551000  0.37904800  0.39579000  1
  O  O28  1  0.68131700  0.51380800  0.98617500  1
  O  O29  1  0.31868300  0.48619200  0.01382500  1
  O  O30  1  0.51681800  0.49974700  0.22363800  1
  O  O31  1  0.48318200  0.50025300  0.77636200  1
  O  O32  1  0.18346200  0.19979100  0.76770700  1
  O  O33  1  0.81653800  0.80020900  0.23229300  1
  O  O34  1  0.52921400  0.20521700  0.71026400  1
  O  O35  1  0.47078600  0.79478300  0.28973600  1
  O  O36  1  0.42601800  0.20442600  0.96763900  1
  O  O37  1  0.57398200  0.79557400  0.03236100  1
loop_
_geom_bond_atom_site_label_1
_geom_bond_atom_site_label_2
_geom_bond_distance
_geom_bond_site_symmetry_2
Li0 O36 2.102674 1_555
Li0 O34 2.128120 1_555
Li0 O31 2.131443 1_555
Li0 O32 2.150393 1_555
Li0 O28 2.270199 1_555
Li0 O29 2.283709 1_556
Li1 O37 2.102674 1_555
Li1 O35 2.128120 1_555
Li1 O30 2.131443 1_555
Li1 O33 2.150393 1_555
Li1 O29 2.270199 1_555
Li1 O28 2.283709 1_554
H0 O28 0.985071 1_555
H0 O18 1.946240 1_555
H1 O29 0.985071 1_555
H1 O19 1.946240 1_555
H2 O28 0.975225 1_554
H3 O29 0.975225 1_556
H4 O30 0.981814 1_555
H4 O11 1.891654 1_555
H5 O31 0.981814 1_555
H5 O10 1.891654 1_555
H6 O30 0.985798 1_555
H6 O12 1.844781 1_555
H7 O31 0.985798 1_555
H7 O13 1.844781 1_555
H8 O32 0.984118 1_555
H8 O8 1.884125 1_545
H9 O33 0.984118 1_555
H9 O9 1.884125 1_565
H10 O32 0.977248 1_555
H10 O3 2.011294 1_455
H11 O33 0.977248 1_555
H11 O2 2.011294 1_655
H12 O34 0.980981 1_555
H12 O14 2.042664 1_545
H13 O35 0.980981 1_555
H13 O15 2.042664 1_565
H14 O34 0.985071 1_555
H14 O24 1.884573 1_555
H15 O35 0.985071 1_555
H15 O25 1.884573 1_555
H16 O36 0.983071 1_555
H16 O20 2.009297 1_545
H17 O37 0.983071 1_555
H17 O21 2.009297 1_565
H18 O36 0.976643 1_554
H19 O37 0.976643 1_556
H20 N0 1.040555 1_555
H20 O0 1.770607 1_545
H21 N1 1.040555 1_555
H21 O1 1.770607 1_565
H22 N0 1.033694 1_555
H22 O16 1.893609 1_555
H23 N1 1.033694 1_555
H23 O17 1.893609 1_555
H24 N0 1.041602 1_555
H25 N1 1.041602 1_555
H26 N0 1.037215 1_555
H26 O23 1.893988 1_555
H27 N1 1.037215 1_555
H27 O22 1.893988 1_555
H28 N2 1.031809 1_555
H28 O7 2.173734 1_565
H28 O5 2.206534 1_565
H29 N3 1.031809 1_555
H29 O6 2.173734 1_545
H29 O4 2.206534 1_545
H30 N2 1.045722 1_555
H30 O2 1.782422 1_555
H31 N3 1.045722 1_555
H31 O3 1.782422 1_555
H32 N2 1.032296 1_556
H32 O18 2.277387 1_455
H32 O20 2.351635 1_555
H32 O13 2.358097 1_555
H33 N3 1.032296 1_554
H33 O19 2.277387 1_655
H33 O21 2.351635 1_555
H33 O12 2.358097 1_555
H34 N2 1.039225 1_555
H35 N3 1.039225 1_555
O0 V6 1.648128 1_555
O1 V7 1.648128 1_555
O2 V4 1.662619 1_455
O3 V5 1.662619 1_655
O4 V0 1.625836 1_555
O5 V1 1.625836 1_555
O6 V8 1.629032 1_555
O7 V9 1.629032 1_555
O8 V6 1.848825 1_555
O8 V0 1.871943 1_455
O9 V7 1.848825 1_555
O9 V1 1.871943 1_655
O10 V2 1.743425 1_555
O10 V0 2.014087 1_555
O11 V3 1.743425 1_555
O11 V1 2.014087 1_555
O12 V4 1.832342 1_555
O12 V9 1.912351 1_555
O13 V5 1.832342 1_555
O13 V8 1.912351 1_555
O14 V6 1.827255 1_555
O14 V8 1.897653 1_555
O15 V7 1.827255 1_555
O15 V9 1.897653 1_555
O16 V2 1.726785 1_555
O16 V9 2.050941 1_555
O17 V3 1.726785 1_555
O17 V8 2.050941 1_555
O18 V5 1.812481 1_655
O18 V0 1.948466 1_555
O19 V4 1.812481 1_455
O19 V1 1.948466 1_555
O20 V8 1.851635 1_555
O20 V0 1.876499 1_455
O21 V9 1.851635 1_555
O21 V1 1.876499 1_655
O22 V2 1.910930 1_555
O22 V6 2.029011 1_655
O22 V4 2.096800 1_555
O23 V3 1.910930 1_555
O23 V7 2.029011 1_455
O23 V5 2.096800 1_555
O24 V2 1.977468 1_555
O24 V7 2.004492 1_555
O24 V5 2.012330 1_655
O25 V3 1.977468 1_555
O25 V6 2.004492 1_555
O25 V4 2.012330 1_455
O26 V3 2.069794 1_555
O26 V2 2.109681 1_455
O26 V5 2.255190 1_555
O26 V6 2.308737 1_555
O26 V8 2.372333 1_555
O26 V0 2.444057 1_455
O27 V2 2.069794 1_555
O27 V3 2.109681 1_655
O27 V4 2.255190 1_555
O27 V7 2.308737 1_555
O27 V9 2.372333 1_555
O27 V1 2.444057 1_655
