# generated using pymatgen
data_Li3V3(CoO6)2
_symmetry_space_group_name_H-M   'P 1'
_cell_length_a   9.18682700
_cell_length_b   8.79547000
_cell_length_c   14.94269431
_cell_angle_alpha   56.06270972
_cell_angle_beta   90.00000000
_cell_angle_gamma   90.00000000
_symmetry_Int_Tables_number   1
_chemical_formula_structural   Li3V3(CoO6)2
_chemical_formula_sum   'Li12 V12 Co8 O48'
_cell_volume   1001.72370728
_cell_formula_units_Z   4
loop_
 _symmetry_equiv_pos_site_id
 _symmetry_equiv_pos_as_xyz
  1  'x, y, z'
loop_
 _atom_site_type_symbol
 _atom_site_label
 _atom_site_symmetry_multiplicity
 _atom_site_fract_x
 _atom_site_fract_y
 _atom_site_fract_z
 _atom_site_occupancy
  Li  Li0  1  0.91178400  0.37191000  0.69867700  1
  Li  Li1  1  0.49397800  0.71686200  0.34472500  1
  Li  Li2  1  0.22374900  0.00160300  0.17932500  1
  Li  Li3  1  0.72374900  0.99839700  0.32067500  1
  Li  Li4  1  0.41178400  0.62809000  0.80132300  1
  Li  Li5  1  0.99397800  0.28313800  0.15527500  1
  Li  Li6  1  0.00602200  0.71686200  0.84472500  1
  Li  Li7  1  0.58821600  0.37191000  0.19867700  1
  Li  Li8  1  0.27625100  0.00160300  0.67932500  1
  Li  Li9  1  0.77625100  0.99839700  0.82067500  1
  Li  Li10  1  0.50602200  0.28313800  0.65527500  1
  Li  Li11  1  0.08821600  0.62809000  0.30132300  1
  V  V0  1  0.75309000  0.54834600  0.49101200  1
  V  V1  1  0.62037200  0.26478900  0.85257800  1
  V  V2  1  0.88423100  0.96967000  0.14350700  1
  V  V3  1  0.12037200  0.73521100  0.64742200  1
  V  V4  1  0.38423100  0.03033000  0.35649300  1
  V  V5  1  0.25309000  0.45165400  0.00898800  1
  V  V6  1  0.74691000  0.54834600  0.99101200  1
  V  V7  1  0.61576900  0.96967000  0.64350700  1
  V  V8  1  0.87962800  0.26478900  0.35257800  1
  V  V9  1  0.11576900  0.03033000  0.85649300  1
  V  V10  1  0.37962800  0.73521100  0.14742200  1
  V  V11  1  0.24691000  0.45165400  0.50898800  1
  Co  Co0  1  0.97845400  0.35205400  0.89464200  1
  Co  Co1  1  0.47845400  0.64794600  0.60535800  1
  Co  Co2  1  0.02989000  0.86943100  0.38476900  1
  Co  Co3  1  0.52989000  0.13056900  0.11523100  1
  Co  Co4  1  0.47011000  0.86943100  0.88476900  1
  Co  Co5  1  0.97011000  0.13056900  0.61523100  1
  Co  Co6  1  0.52154600  0.35205400  0.39464200  1
  Co  Co7  1  0.02154600  0.64794600  0.10535800  1
  O  O0  1  0.11826700  0.62060800  0.43903700  1
  O  O1  1  0.10944700  0.16460900  0.90616000  1
  O  O2  1  0.33914800  0.45827800  0.60746000  1
  O  O3  1  0.42180300  0.87703700  0.19266400  1
  O  O4  1  0.62875300  0.51032500  0.59214100  1
  O  O5  1  0.81190400  0.28706700  0.84014300  1
  O  O6  1  0.57730400  0.15434000  0.98797600  1
  O  O7  1  0.01488700  0.87967500  0.24840200  1
  O  O8  1  0.71553000  0.98165300  0.19132700  1
  O  O9  1  0.82859700  0.76689800  0.42941300  1
  O  O10  1  0.52798500  0.46866400  0.77682500  1
  O  O11  1  0.02798500  0.53133600  0.72317500  1
  O  O12  1  0.94583100  0.19479300  0.05268100  1
  O  O13  1  0.44583100  0.80520700  0.44731900  1
  O  O14  1  0.32859700  0.23310200  0.07058700  1
  O  O15  1  0.21553000  0.01834700  0.30867300  1
  O  O16  1  0.07730400  0.84566000  0.51202400  1
  O  O17  1  0.51488700  0.12032500  0.25159800  1
  O  O18  1  0.31190400  0.71293300  0.65985700  1
  O  O19  1  0.12875300  0.48967500  0.90785900  1
  O  O20  1  0.83914800  0.54172200  0.89254000  1
  O  O21  1  0.60944700  0.83539100  0.59384000  1
  O  O22  1  0.92180300  0.12296300  0.30733600  1
  O  O23  1  0.61826700  0.37939200  0.06096300  1
  O  O24  1  0.38173300  0.62060800  0.93903700  1
  O  O25  1  0.07819700  0.87703700  0.69266400  1
  O  O26  1  0.39055300  0.16460900  0.40616000  1
  O  O27  1  0.16085200  0.45827800  0.10746000  1
  O  O28  1  0.87124700  0.51032500  0.09214100  1
  O  O29  1  0.68809600  0.28706700  0.34014300  1
  O  O30  1  0.48511300  0.87967500  0.74840200  1
  O  O31  1  0.92269600  0.15434000  0.48797600  1
  O  O32  1  0.78447000  0.98165300  0.69132700  1
  O  O33  1  0.67140300  0.76689800  0.92941300  1
  O  O34  1  0.55416900  0.19479300  0.55268100  1
  O  O35  1  0.05416900  0.80520700  0.94731900  1
  O  O36  1  0.97201500  0.46866400  0.27682500  1
  O  O37  1  0.47201500  0.53133600  0.22317500  1
  O  O38  1  0.17140300  0.23310200  0.57058700  1
  O  O39  1  0.28447000  0.01834700  0.80867300  1
  O  O40  1  0.98511300  0.12032500  0.75159800  1
  O  O41  1  0.42269600  0.84566000  0.01202400  1
  O  O42  1  0.18809600  0.71293300  0.15985700  1
  O  O43  1  0.37124700  0.48967500  0.40785900  1
  O  O44  1  0.57819700  0.12296300  0.80733600  1
  O  O45  1  0.66085200  0.54172200  0.39254000  1
  O  O46  1  0.89055300  0.83539100  0.09384000  1
  O  O47  1  0.88173300  0.37939200  0.56096300  1
loop_
_geom_bond_atom_site_label_1
_geom_bond_atom_site_label_2
_geom_bond_distance
_geom_bond_site_symmetry_2
Li0 O11 1.952686 1_655
Li0 O40 2.005454 1_555
Li0 O5 2.026323 1_555
Li0 O47 2.040578 1_555
Li1 O45 2.001185 1_555
Li1 O3 2.003257 1_555
Li1 O43 2.012283 1_555
Li1 O13 2.116529 1_555
Li2 O14 2.004920 1_555
Li2 O15 2.020140 1_555
Li2 O3 2.075284 1_545
Li2 O7 2.158990 1_545
Li2 O42 2.731862 1_545
Li3 O9 2.004920 1_555
Li3 O8 2.020140 1_555
Li3 O22 2.075284 1_565
Li3 O17 2.158990 1_565
Li3 O29 2.731862 1_565
Li4 O10 1.952686 1_555
Li4 O30 2.005454 1_555
Li4 O18 2.026323 1_555
Li4 O24 2.040578 1_555
Li5 O27 2.001185 1_655
Li5 O22 2.003257 1_555
Li5 O28 2.012283 1_555
Li5 O12 2.116529 1_555
Li6 O20 2.001185 1_455
Li6 O25 2.003257 1_555
Li6 O19 2.012283 1_555
Li6 O35 2.116529 1_555
Li7 O37 1.952686 1_555
Li7 O17 2.005454 1_555
Li7 O29 2.026323 1_555
Li7 O23 2.040578 1_555
Li8 O38 2.004920 1_555
Li8 O39 2.020140 1_555
Li8 O25 2.075284 1_545
Li8 O30 2.158990 1_545
Li8 O18 2.731862 1_545
Li9 O33 2.004920 1_555
Li9 O32 2.020140 1_555
Li9 O44 2.075284 1_565
Li9 O40 2.158990 1_565
Li9 O5 2.731862 1_565
Li10 O2 2.001185 1_555
Li10 O44 2.003257 1_555
Li10 O4 2.012283 1_555
Li10 O34 2.116529 1_555
Li11 O36 1.952686 1_455
Li11 O7 2.005454 1_555
Li11 O42 2.026323 1_555
Li11 O0 2.040578 1_555
Co0 O19 1.917714 1_655
Co0 O5 1.962332 1_555
Co0 O1 1.969541 1_655
Co0 O12 1.983088 1_556
Co0 O20 2.088845 1_555
Co0 O11 2.178794 1_655
Co1 O4 1.917714 1_555
Co1 O18 1.962332 1_555
Co1 O21 1.969541 1_555
Co1 O13 1.983088 1_555
Co1 O2 2.088845 1_555
Co1 O10 2.178794 1_555
Co2 O16 1.845362 1_555
Co2 O7 1.993564 1_555
Co2 O9 2.001569 1_455
Co2 O0 2.030960 1_555
Co2 O15 2.062542 1_565
Co2 O22 2.101536 1_465
Co3 O6 1.845362 1_554
Co3 O17 1.993564 1_555
Co3 O14 2.001569 1_555
Co3 O23 2.030960 1_555
Co3 O8 2.062542 1_545
Co3 O3 2.101536 1_545
Co4 O41 1.845362 1_556
Co4 O30 1.993564 1_555
Co4 O33 2.001569 1_555
Co4 O24 2.030960 1_555
Co4 O39 2.062542 1_565
Co4 O44 2.101536 1_565
Co5 O31 1.845362 1_555
Co5 O40 1.993564 1_555
Co5 O38 2.001569 1_655
Co5 O47 2.030960 1_555
Co5 O32 2.062542 1_545
Co5 O25 2.101536 1_645
Co6 O43 1.917714 1_555
Co6 O29 1.962332 1_555
Co6 O26 1.969541 1_555
Co6 O34 1.983088 1_555
Co6 O45 2.088845 1_555
Co6 O37 2.178794 1_555
Co7 O28 1.917714 1_455
Co7 O42 1.962332 1_555
Co7 O46 1.969541 1_455
Co7 O35 1.983088 1_554
Co7 O27 2.088845 1_555
Co7 O36 2.178794 1_455
O0 V11 1.721394 1_555
O1 V9 1.711066 1_555
O2 V11 1.726930 1_555
O3 V10 1.762053 1_555
O4 V0 1.770843 1_555
O5 V1 1.768717 1_555
O6 V1 1.731786 1_555
O7 V2 1.771660 1_455
O8 V2 1.734289 1_555
O9 V0 1.745827 1_555
O10 V1 1.717778 1_555
O11 V3 1.717778 1_555
O12 V2 1.755642 1_545
O13 V4 1.755642 1_565
O14 V5 1.745827 1_555
O15 V4 1.734289 1_555
O16 V3 1.731786 1_555
O17 V4 1.771660 1_555
O18 V3 1.768717 1_555
O19 V5 1.770843 1_556
O20 V6 1.726930 1_555
O21 V7 1.711066 1_555
O22 V8 1.762053 1_555
O23 V6 1.721394 1_554
O24 V5 1.721394 1_556
O25 V3 1.762053 1_555
O26 V4 1.711066 1_555
O27 V5 1.726930 1_555
O28 V6 1.770843 1_554
O29 V8 1.768717 1_555
O30 V7 1.771660 1_555
O31 V8 1.731786 1_555
O32 V7 1.734289 1_555
O33 V6 1.745827 1_555
O34 V7 1.755642 1_545
O35 V9 1.755642 1_565
O36 V8 1.717778 1_555
O37 V10 1.717778 1_555
O38 V11 1.745827 1_555
O39 V9 1.734289 1_555
O40 V9 1.771660 1_655
O41 V10 1.731786 1_555
O42 V10 1.768717 1_555
O43 V11 1.770843 1_555
O44 V1 1.762053 1_555
O45 V0 1.726930 1_555
O46 V2 1.711066 1_555
O47 V0 1.721394 1_555
