# generated using pymatgen
data_Li4WO5
_symmetry_space_group_name_H-M   'P 1'
_cell_length_a   5.15752600
_cell_length_b   5.18879482
_cell_length_c   7.86323242
_cell_angle_alpha   108.54567719
_cell_angle_beta   101.63803232
_cell_angle_gamma   101.34152794
_symmetry_Int_Tables_number   1
_chemical_formula_structural   Li4WO5
_chemical_formula_sum   'Li8 W2 O10'
_cell_volume   187.53536241
_cell_formula_units_Z   2
loop_
 _symmetry_equiv_pos_site_id
 _symmetry_equiv_pos_as_xyz
  1  'x, y, z'
loop_
 _atom_site_type_symbol
 _atom_site_label
 _atom_site_symmetry_multiplicity
 _atom_site_fract_x
 _atom_site_fract_y
 _atom_site_fract_z
 _atom_site_occupancy
  Li  Li0  1  0.91549100  0.60597300  0.39064900  1
  Li  Li1  1  0.58109600  0.39705500  0.09868100  1
  Li  Li2  1  0.17755700  0.80176700  0.69611600  1
  Li  Li3  1  0.50000000  0.00000000  0.00000000  1
  Li  Li4  1  0.41890400  0.60294500  0.90131900  1
  Li  Li5  1  0.82244300  0.19823300  0.30388400  1
  Li  Li6  1  0.08450900  0.39402700  0.60935100  1
  Li  Li7  1  0.00000000  0.00000000  0.50000000  1
  W  W0  1  0.32369000  0.21656800  0.78371700  1
  W  W1  1  0.67631000  0.78343200  0.21628300  1
  O  O0  1  0.38155700  0.89719700  0.33494100  1
  O  O1  1  0.27974800  0.51136700  0.24931800  1
  O  O2  1  0.72025200  0.48863300  0.75068200  1
  O  O3  1  0.11739800  0.08119000  0.15462900  1
  O  O4  1  0.61844300  0.10280300  0.66505900  1
  O  O5  1  0.04802600  0.74255000  0.04155900  1
  O  O6  1  0.47797000  0.33194300  0.42799000  1
  O  O7  1  0.95197400  0.25745000  0.95844100  1
  O  O8  1  0.88260200  0.91881000  0.84537100  1
  O  O9  1  0.52203000  0.66805700  0.57201000  1
loop_
_geom_bond_atom_site_label_1
_geom_bond_atom_site_label_2
_geom_bond_distance
_geom_bond_site_symmetry_2
Li0 Li7 1.867997 1_665
Li0 Li5 1.929311 1_555
Li0 W1 2.194750 1_555
Li0 Li2 2.286087 1_655
Li0 Li1 2.346137 1_555
Li0 O1 2.421449 1_655
Li0 Li6 2.429403 1_655
Li0 O6 2.543780 1_555
Li1 W1 1.834630 1_555
Li1 Li3 1.880112 1_555
Li1 O1 2.197457 1_555
Li1 Li4 2.265356 1_554
Li1 W0 2.341428 1_554
Li1 Li5 2.443546 1_555
Li1 O7 2.507485 1_554
Li2 Li6 1.929311 1_555
Li2 W0 1.970893 1_565
Li2 O8 2.165798 1_455
Li2 Li7 2.254867 1_565
Li2 O9 2.311645 1_555
Li2 Li3 2.386179 1_566
Li2 Li4 2.443546 1_555
Li3 Li4 1.880112 1_544
Li3 Li5 2.386179 1_555
Li3 W0 2.444507 1_554
Li3 W1 2.444507 1_545
Li3 O8 2.553196 1_544
Li3 O3 2.553196 1_555
Li3 O7 2.585622 1_554
Li3 O5 2.585622 1_545
Li4 W0 1.834630 1_555
Li4 O2 2.197457 1_555
Li4 W1 2.341428 1_556
Li4 Li6 2.346137 1_555
Li4 O5 2.507485 1_556
Li5 W1 1.970893 1_545
Li5 O3 2.165798 1_655
Li5 Li7 2.254867 1_655
Li5 Li6 2.286087 1_655
Li5 O6 2.311645 1_555
Li6 Li7 1.867997 1_555
Li6 W0 2.194750 1_555
Li6 O2 2.421449 1_455
Li6 O9 2.543780 1_555
Li7 W0 2.278515 1_555
Li7 W1 2.278515 1_445
O0 O1 1.823040 1_555
O0 W1 2.026046 1_555
O0 O6 2.057518 1_565
O0 O3 2.317577 1_565
O0 O5 2.367144 1_555
O0 O4 2.411469 1_565
O1 O3 2.047909 1_555
O1 O6 2.124306 1_555
O1 O7 2.339263 1_454
O1 W1 2.357014 1_555
O1 O9 2.381123 1_555
O2 O4 1.823040 1_555
O2 O8 2.047909 1_555
O2 O9 2.124306 1_555
O2 O5 2.339263 1_656
O2 W0 2.357014 1_555
O2 O6 2.381123 1_555
O3 O5 1.623768 1_545
O3 O7 2.148856 1_454
O3 O6 2.329826 1_555
O4 W0 2.026046 1_555
O4 O9 2.057518 1_545
O4 O8 2.317577 1_545
O4 O7 2.367144 1_555
O5 O8 2.148856 1_454
O6 O9 1.691056 1_555
O7 O8 1.623768 1_545
O8 O9 2.329826 1_555
