# generated using pymatgen
data_LiVF3
_symmetry_space_group_name_H-M   'P 1'
_cell_length_a   5.01117800
_cell_length_b   5.37241900
_cell_length_c   8.90879700
_cell_angle_alpha   90.00000000
_cell_angle_beta   90.00000000
_cell_angle_gamma   90.00000000
_symmetry_Int_Tables_number   1
_chemical_formula_structural   LiVF3
_chemical_formula_sum   'Li4 V4 F12'
_cell_volume   239.84395044
_cell_formula_units_Z   4
loop_
 _symmetry_equiv_pos_site_id
 _symmetry_equiv_pos_as_xyz
  1  'x, y, z'
loop_
 _atom_site_type_symbol
 _atom_site_label
 _atom_site_symmetry_multiplicity
 _atom_site_fract_x
 _atom_site_fract_y
 _atom_site_fract_z
 _atom_site_occupancy
  Li  Li0  1  0.50000000  0.25000000  0.18954600  1
  Li  Li1  1  0.50000000  0.75000000  0.81045400  1
  Li  Li2  1  0.00000000  0.75000000  0.68954600  1
  Li  Li3  1  0.00000000  0.25000000  0.31045400  1
  V  V0  1  0.50000000  0.75000000  0.40541600  1
  V  V1  1  0.50000000  0.25000000  0.59458400  1
  V  V2  1  0.00000000  0.75000000  0.09458400  1
  V  V3  1  0.00000000  0.25000000  0.90541600  1
  F  F0  1  0.28206700  0.91501600  0.58546900  1
  F  F1  1  0.28206700  0.41501600  0.41453100  1
  F  F2  1  0.25000000  0.44758400  0.75000000  1
  F  F3  1  0.25000000  0.94758400  0.25000000  1
  F  F4  1  0.21793300  0.91501600  0.91453100  1
  F  F5  1  0.21793300  0.41501600  0.08546900  1
  F  F6  1  0.78206700  0.08498400  0.08546900  1
  F  F7  1  0.78206700  0.58498400  0.91453100  1
  F  F8  1  0.75000000  0.05241600  0.75000000  1
  F  F9  1  0.75000000  0.55241600  0.25000000  1
  F  F10  1  0.71793300  0.08498400  0.41453100  1
  F  F11  1  0.71793300  0.58498400  0.58546900  1
loop_
_geom_bond_atom_site_label_1
_geom_bond_atom_site_label_2
_geom_bond_distance
_geom_bond_site_symmetry_2
F0 Li2 1.908820 1_555
F0 V1 2.106681 1_565
F0 V0 2.133453 1_555
F0 Li1 2.448679 1_555
F1 Li3 1.908820 1_555
F1 V0 2.106681 1_555
F1 V1 2.133453 1_555
F1 Li0 2.448679 1_555
F2 Li1 2.121137 1_555
F2 Li2 2.121137 1_555
F2 V3 2.147864 1_555
F2 V1 2.147864 1_555
F3 Li3 2.121137 1_565
F3 Li0 2.121137 1_565
F3 V0 2.147864 1_555
F3 V2 2.147864 1_555
F4 Li1 1.908820 1_555
F4 V3 2.106681 1_565
F4 V2 2.133453 1_556
F4 Li2 2.448679 1_555
F5 Li0 1.908820 1_555
F5 V2 2.106681 1_555
F5 V3 2.133453 1_554
F5 Li3 2.448679 1_555
F6 Li0 1.908820 1_555
F6 V2 2.106681 1_645
F6 V3 2.133453 1_654
F6 Li3 2.448679 1_655
F7 Li1 1.908820 1_555
F7 V3 2.106681 1_655
F7 V2 2.133453 1_656
F7 Li2 2.448679 1_655
F8 Li2 2.121137 1_645
F8 Li1 2.121137 1_545
F8 V3 2.147864 1_655
F8 V1 2.147864 1_555
F9 Li3 2.121137 1_655
F9 Li0 2.121137 1_555
F9 V0 2.147864 1_555
F9 V2 2.147864 1_655
F10 Li3 1.908820 1_655
F10 V0 2.106681 1_545
F10 V1 2.133453 1_555
F10 Li0 2.448679 1_555
F11 Li2 1.908820 1_655
F11 V1 2.106681 1_555
F11 V0 2.133453 1_555
F11 Li1 2.448679 1_555
