# generated using pymatgen
data_AgClO3
_symmetry_space_group_name_H-M   'P 1'
_cell_length_a   5.41686000
_cell_length_b   6.96727500
_cell_length_c   8.84305567
_cell_angle_alpha   67.81934874
_cell_angle_beta   90.00000000
_cell_angle_gamma   90.00000000
_symmetry_Int_Tables_number   1
_chemical_formula_structural   AgClO3
_chemical_formula_sum   'Ag4 Cl4 O12'
_cell_volume   309.04593238
_cell_formula_units_Z   4
loop_
 _symmetry_equiv_pos_site_id
 _symmetry_equiv_pos_as_xyz
  1  'x, y, z'
loop_
 _atom_site_type_symbol
 _atom_site_label
 _atom_site_symmetry_multiplicity
 _atom_site_fract_x
 _atom_site_fract_y
 _atom_site_fract_z
 _atom_site_occupancy
  Ag  Ag0  1  0.26288000  0.30785800  0.17625700  1
  Ag  Ag1  1  0.76288000  0.69214200  0.32374300  1
  Ag  Ag2  1  0.23712000  0.30785800  0.67625700  1
  Ag  Ag3  1  0.73712000  0.69214200  0.82374300  1
  Cl  Cl0  1  0.22260800  0.82305900  0.02494600  1
  Cl  Cl1  1  0.72260800  0.17694100  0.47505400  1
  Cl  Cl2  1  0.27739200  0.82305900  0.52494600  1
  Cl  Cl3  1  0.77739200  0.17694100  0.97505400  1
  O  O0  1  0.84309200  0.09178500  0.15363700  1
  O  O1  1  0.47769800  0.72775600  0.04334100  1
  O  O2  1  0.04396600  0.64300200  0.10687400  1
  O  O3  1  0.54396600  0.35699800  0.39312600  1
  O  O4  1  0.97769800  0.27224400  0.45665900  1
  O  O5  1  0.34309200  0.90821500  0.34636300  1
  O  O6  1  0.65690800  0.09178500  0.65363700  1
  O  O7  1  0.02230200  0.72775600  0.54334100  1
  O  O8  1  0.45603400  0.64300200  0.60687400  1
  O  O9  1  0.95603400  0.35699800  0.89312600  1
  O  O10  1  0.52230200  0.27224400  0.95665900  1
  O  O11  1  0.15690800  0.90821500  0.84636300  1
loop_
_geom_bond_atom_site_label_1
_geom_bond_atom_site_label_2
_geom_bond_distance
_geom_bond_site_symmetry_2
Ag0 O2 2.480584 1_555
Ag0 O10 2.484185 1_554
Ag0 O3 2.570837 1_555
Ag0 O5 2.653685 1_545
Ag0 O0 2.775699 1_455
Ag0 O4 2.851640 1_455
Ag0 O9 2.915720 1_454
Ag0 O1 2.949242 1_555
Ag1 O3 2.480584 1_555
Ag1 O7 2.484185 1_655
Ag1 O2 2.570837 1_655
Ag1 O0 2.653685 1_565
Ag1 O5 2.775699 1_555
Ag1 O1 2.851640 1_555
Ag1 O8 2.915720 1_555
Ag1 O4 2.949242 1_555
Ag2 O8 2.480584 1_555
Ag2 O4 2.484185 1_455
Ag2 O9 2.570837 1_455
Ag2 O11 2.653685 1_545
Ag2 O6 2.775699 1_555
Ag2 O10 2.851640 1_555
Ag2 O3 2.915720 1_555
Ag2 O7 2.949242 1_555
Ag3 O9 2.480584 1_555
Ag3 O1 2.484185 1_556
Ag3 O8 2.570837 1_555
Ag3 O6 2.653685 1_565
Ag3 O11 2.775699 1_655
Ag3 O7 2.851640 1_655
Ag3 O2 2.915720 1_656
Ag3 O10 2.949242 1_555
Cl0 O11 1.505040 1_554
Cl0 O1 1.514972 1_555
Cl0 O2 1.532587 1_555
Cl1 O6 1.505040 1_555
Cl1 O4 1.514972 1_555
Cl1 O3 1.532587 1_555
Cl2 O5 1.505040 1_555
Cl2 O7 1.514972 1_555
Cl2 O8 1.532587 1_555
Cl3 O0 1.505040 1_556
Cl3 O10 1.514972 1_555
Cl3 O9 1.532587 1_555
