# generated using pymatgen
data_NaNiPO4
_symmetry_space_group_name_H-M   'P 1'
_cell_length_a   4.99089833
_cell_length_b   4.99089695
_cell_length_c   6.76212407
_cell_angle_alpha   90.01392541
_cell_angle_beta   90.01390483
_cell_angle_gamma   64.90553596
_symmetry_Int_Tables_number   1
_chemical_formula_structural   NaNiPO4
_chemical_formula_sum   'Na2 Ni2 P2 O8'
_cell_volume   152.53922928
_cell_formula_units_Z   2
loop_
 _symmetry_equiv_pos_site_id
 _symmetry_equiv_pos_as_xyz
  1  'x, y, z'
loop_
 _atom_site_type_symbol
 _atom_site_label
 _atom_site_symmetry_multiplicity
 _atom_site_fract_x
 _atom_site_fract_y
 _atom_site_fract_z
 _atom_site_occupancy
  Na  Na0  1  0.31336200  0.31336600  0.74998400  1
  Na  Na1  1  0.68664500  0.68664900  0.25001800  1
  Ni  Ni0  1  0.99986700  0.00000700  0.49998200  1
  Ni  Ni1  1  0.00010000  0.99991300  0.99999900  1
  P  P0  1  0.33688000  0.33688300  0.25000500  1
  P  P1  1  0.66312300  0.66312600  0.75000200  1
  O  O0  1  0.20970100  0.68621200  0.25001600  1
  O  O1  1  0.31380000  0.79030900  0.74998600  1
  O  O2  1  0.79030500  0.31380400  0.74998300  1
  O  O3  1  0.68620800  0.20970500  0.25001900  1
  O  O4  1  0.23202600  0.23203100  0.43506700  1
  O  O5  1  0.76797200  0.76797700  0.56493500  1
  O  O6  1  0.23204400  0.23204800  0.06497300  1
  O  O7  1  0.76796700  0.76797100  0.93503000  1
loop_
_geom_bond_atom_site_label_1
_geom_bond_atom_site_label_2
_geom_bond_distance
_geom_bond_site_symmetry_2
Na0 O4 2.236808 1_555
Na0 O6 2.237601 1_556
Na0 O1 2.381301 1_555
Na0 O2 2.381302 1_555
Na0 O1 2.609597 1_545
Na0 O2 2.609598 1_455
Na1 O5 2.236787 1_555
Na1 O7 2.237605 1_554
Na1 O3 2.381304 1_555
Na1 O0 2.381305 1_555
Na1 O3 2.609594 1_565
Na1 O0 2.609595 1_655
Ni0 O5 2.002699 1_545
Ni0 O4 2.003703 1_655
Ni0 O3 2.238943 1_555
Ni0 O2 2.239365 1_555
Ni0 O0 2.239413 1_645
Ni0 O1 2.239837 1_645
Ni1 O7 2.003092 1_455
Ni1 O6 2.003116 1_566
Ni1 O1 2.239410 1_555
Ni1 O0 2.239431 1_556
Ni1 O2 2.240066 1_465
Ni1 O3 2.240086 1_466
O0 P0 1.582366 1_555
O1 P1 1.582337 1_555
O2 P1 1.582332 1_555
O3 P0 1.582362 1_555
O4 P0 1.531883 1_555
O5 P1 1.531896 1_555
O6 P0 1.531217 1_555
O7 P1 1.531239 1_555
