# generated using pymatgen
data_Al3P4H18C3N3O16
_symmetry_space_group_name_H-M   'P 1'
_cell_length_a   8.47533200
_cell_length_b   11.41946579
_cell_length_c   11.61948106
_cell_angle_alpha   107.54670920
_cell_angle_beta   89.42269221
_cell_angle_gamma   94.65876523
_symmetry_Int_Tables_number   1
_chemical_formula_structural   Al3P4H18C3N3O16
_chemical_formula_sum   'Al6 P8 H36 C6 N6 O32'
_cell_volume   1068.58671039
_cell_formula_units_Z   2
loop_
 _symmetry_equiv_pos_site_id
 _symmetry_equiv_pos_as_xyz
  1  'x, y, z'
loop_
 _atom_site_type_symbol
 _atom_site_label
 _atom_site_symmetry_multiplicity
 _atom_site_fract_x
 _atom_site_fract_y
 _atom_site_fract_z
 _atom_site_occupancy
  Al  Al0  1  0.85156000  0.65271800  0.57453400  1
  Al  Al1  1  0.14844000  0.34728200  0.42546600  1
  Al  Al2  1  0.68022300  0.94929600  0.86745700  1
  Al  Al3  1  0.31977700  0.05070400  0.13254300  1
  Al  Al4  1  0.26131000  0.71167800  0.78386500  1
  Al  Al5  1  0.73869000  0.28832200  0.21613500  1
  P  P0  1  0.47618600  0.80690700  0.01962900  1
  P  P1  1  0.52381400  0.19309300  0.98037100  1
  P  P2  1  0.02253500  0.89442300  0.76041600  1
  P  P3  1  0.97746500  0.10557700  0.23958400  1
  P  P4  1  0.02196300  0.47201200  0.68566900  1
  P  P5  1  0.97803700  0.52798800  0.31433100  1
  P  P6  1  0.52589000  0.76792700  0.61955100  1
  P  P7  1  0.47411000  0.23207300  0.38044900  1
  H  H0  1  0.89117900  0.83800400  0.17860000  1
  H  H1  1  0.10882100  0.16199600  0.82140000  1
  H  H2  1  0.75080200  0.72282700  0.12281300  1
  H  H3  1  0.24919800  0.27717300  0.87718700  1
  H  H4  1  0.92389000  0.69412900  0.18564100  1
  H  H5  1  0.07611000  0.30587100  0.81435900  1
  H  H6  1  0.43626500  0.69763700  0.20905100  1
  H  H7  1  0.56373500  0.30236300  0.79094900  1
  H  H8  1  0.26623900  0.63279300  0.25557400  1
  H  H9  1  0.73376100  0.36720700  0.74442600  1
  H  H10  1  0.41483600  0.70342600  0.35765400  1
  H  H11  1  0.58516400  0.29657400  0.64234600  1
  H  H12  1  0.34334500  0.07465200  0.53186800  1
  H  H13  1  0.65665500  0.92534800  0.46813200  1
  H  H14  1  0.21981600  0.00096600  0.61374000  1
  H  H15  1  0.78018400  0.99903400  0.38626000  1
  H  H16  1  0.37886600  0.93231900  0.53855600  1
  H  H17  1  0.62113400  0.06768100  0.46144400  1
  H  H18  1  0.92660800  0.61279300  0.96796500  1
  H  H19  1  0.07339200  0.38720700  0.03203500  1
  H  H20  1  0.90123300  0.76514700  0.96068200  1
  H  H21  1  0.09876700  0.23485300  0.03931800  1
  H  H22  1  0.07698600  0.73557300  0.02673000  1
  H  H23  1  0.92301400  0.26442700  0.97327000  1
  H  H24  1  0.43619700  0.47614400  0.14995500  1
  H  H25  1  0.56380300  0.52385600  0.85004500  1
  H  H26  1  0.59438900  0.55211000  0.25219200  1
  H  H27  1  0.40561100  0.44789000  0.74780800  1
  H  H28  1  0.42330700  0.48370700  0.30604400  1
  H  H29  1  0.57669300  0.51629300  0.69395600  1
  H  H30  1  0.10667000  0.99465700  0.41453400  1
  H  H31  1  0.89333000  0.00534300  0.58546600  1
  H  H32  1  0.26636700  0.90810500  0.34595500  1
  H  H33  1  0.73363300  0.09189500  0.65404500  1
  H  H34  1  0.12638800  0.84708900  0.43427100  1
  H  H35  1  0.87361200  0.15291100  0.56572900  1
  C  C0  1  0.19073900  0.93104200  0.42526200  1
  C  C1  1  0.80926100  0.06895800  0.57473800  1
  C  C2  1  0.46581300  0.53237500  0.24243600  1
  C  C3  1  0.53418700  0.46762500  0.75756400  1
  C  C4  1  0.94948700  0.71156200  0.01371800  1
  C  C5  1  0.05051300  0.28843800  0.98628200  1
  N  N0  1  0.28976500  0.99027600  0.53563200  1
  N  N1  1  0.71023500  0.00972400  0.46436800  1
  N  N2  1  0.38963200  0.65037100  0.26882400  1
  N  N3  1  0.61036800  0.34962900  0.73117600  1
  N  N4  1  0.87336400  0.74295200  0.13392000  1
  N  N5  1  0.12663600  0.25704800  0.86608000  1
  O  O0  1  0.54081300  0.73285200  0.09458600  1
  O  O1  1  0.45918700  0.26714800  0.90541400  1
  O  O2  1  0.38968400  0.72163200  0.90375100  1
  O  O3  1  0.61031600  0.27836800  0.09624900  1
  O  O4  1  0.57935500  0.88019900  0.72933700  1
  O  O5  1  0.42064500  0.11980100  0.27066300  1
  O  O6  1  0.96109300  0.79353600  0.64262800  1
  O  O7  1  0.03890700  0.20646400  0.35737200  1
  O  O8  1  0.36740300  0.70720900  0.65139600  1
  O  O9  1  0.63259700  0.29279100  0.34860400  1
  O  O10  1  0.88234200  0.92841600  0.84805500  1
  O  O11  1  0.11765800  0.07158400  0.15194500  1
  O  O12  1  0.14269600  0.83664500  0.82293900  1
  O  O13  1  0.85730400  0.16335500  0.17706100  1
  O  O14  1  0.09710200  0.00686100  0.72999700  1
  O  O15  1  0.90289800  0.99313900  0.27000300  1
  O  O16  1  0.14493800  0.57302200  0.76127300  1
  O  O17  1  0.85506200  0.42697800  0.23872700  1
  O  O18  1  0.64929200  0.67055100  0.59831400  1
  O  O19  1  0.35070800  0.32944900  0.40168600  1
  O  O20  1  0.89618700  0.53510100  0.63350200  1
  O  O21  1  0.10381300  0.46489900  0.36649800  1
  O  O22  1  0.50512700  0.81025900  0.50805700  1
  O  O23  1  0.49487300  0.18974100  0.49194300  1
  O  O24  1  0.94329300  0.39693500  0.76141200  1
  O  O25  1  0.05670700  0.60306500  0.23858800  1
  O  O26  1  0.61274800  0.88552000  0.98014900  1
  O  O27  1  0.38725200  0.11448000  0.01985100  1
  O  O28  1  0.35357900  0.89419300  0.09285000  1
  O  O29  1  0.64642100  0.10580700  0.90715000  1
  O  O30  1  0.11193700  0.38733100  0.57975800  1
  O  O31  1  0.88806300  0.61266900  0.42024200  1
loop_
_geom_bond_atom_site_label_1
_geom_bond_atom_site_label_2
_geom_bond_distance
_geom_bond_site_symmetry_2
Al0 O31 1.742528 1_555
Al0 O20 1.749042 1_555
Al0 O18 1.752096 1_555
Al0 O6 1.754659 1_555
Al1 O30 1.742528 1_555
Al1 O21 1.749042 1_555
Al1 O19 1.752096 1_555
Al1 O7 1.754659 1_555
Al2 O26 1.750513 1_555
Al2 O10 1.751653 1_555
Al2 O29 1.752886 1_565
Al2 O4 1.756019 1_555
Al3 O27 1.750513 1_555
Al3 O11 1.751653 1_555
Al3 O28 1.752886 1_545
Al3 O5 1.756019 1_555
Al4 O16 1.746333 1_555
Al4 O2 1.747041 1_555
Al4 O12 1.756819 1_555
Al4 O8 1.764233 1_555
Al5 O17 1.746333 1_555
Al5 O3 1.747041 1_555
Al5 O13 1.756819 1_555
Al5 O9 1.764233 1_555
H0 N4 1.051515 1_555
H0 O15 1.765025 1_555
H1 N5 1.051515 1_555
H1 O14 1.765025 1_555
H2 N4 1.046193 1_555
H2 O0 1.831831 1_555
H3 N5 1.046193 1_555
H3 O1 1.831831 1_555
H4 N4 1.049469 1_555
H4 O25 1.821231 1_655
H5 N5 1.049469 1_555
H5 O24 1.821231 1_455
H6 N2 1.056298 1_555
H6 O0 1.719500 1_555
H7 N3 1.056298 1_555
H7 O1 1.719500 1_555
H8 N2 1.052709 1_555
H8 O25 1.782298 1_555
H9 N3 1.052709 1_555
H9 O24 1.782298 1_555
H10 N2 1.041348 1_555
H10 O22 1.928164 1_555
H11 N3 1.041348 1_555
H11 O23 1.928164 1_555
H12 N0 1.044245 1_545
H12 O23 1.916564 1_555
H13 N1 1.044245 1_565
H13 O22 1.916564 1_555
H14 N0 1.060266 1_545
H14 O14 1.685003 1_555
H15 N1 1.060266 1_565
H15 O15 1.685003 1_555
H16 N0 1.051054 1_555
H16 O22 1.774927 1_555
H17 N1 1.051054 1_555
H17 O23 1.774927 1_555
C0 H30 1.091519 1_555
C0 H32 1.094741 1_555
C0 H34 1.096331 1_555
C0 N0 1.487617 1_555
C1 H31 1.091519 1_555
C1 H33 1.094741 1_555
C1 H35 1.096331 1_555
C1 N1 1.487617 1_555
C2 H24 1.092361 1_555
C2 H28 1.093022 1_555
C2 H26 1.094683 1_555
C2 N2 1.488198 1_555
C3 H25 1.092361 1_555
C3 H29 1.093022 1_555
C3 H27 1.094683 1_555
C3 N3 1.488198 1_555
C4 H20 1.092960 1_554
C4 H22 1.093570 1_655
C4 H18 1.094241 1_554
C4 N4 1.487614 1_555
C5 H21 1.092960 1_556
C5 H23 1.093570 1_455
C5 H19 1.094241 1_556
C5 N5 1.487614 1_555
O0 P0 1.517469 1_555
O1 P1 1.517469 1_555
O2 P0 1.553063 1_556
O3 P1 1.553063 1_554
O4 P6 1.551612 1_555
O5 P7 1.551612 1_555
O6 P2 1.561339 1_655
O7 P3 1.561339 1_455
O8 P6 1.554134 1_555
O9 P7 1.554134 1_555
O10 P2 1.552942 1_655
O11 P3 1.552942 1_455
O12 P2 1.553492 1_555
O13 P3 1.553492 1_555
O14 P2 1.519955 1_545
O15 P3 1.519955 1_565
O16 P4 1.549421 1_555
O17 P5 1.549421 1_555
O18 P6 1.552261 1_555
O19 P7 1.552261 1_555
O20 P4 1.556885 1_655
O21 P5 1.556885 1_455
O22 P6 1.529380 1_555
O23 P7 1.529380 1_555
O24 P4 1.518037 1_655
O25 P5 1.518037 1_455
O26 P0 1.557165 1_556
O27 P1 1.557165 1_554
O28 P0 1.560858 1_555
O29 P1 1.560858 1_555
O30 P4 1.553829 1_555
O31 P5 1.553829 1_555
