# generated using pymatgen
data_BeGaRh2
_symmetry_space_group_name_H-M   'P 1'
_cell_length_a   4.09906083
_cell_length_b   4.09906087
_cell_length_c   4.09906086
_cell_angle_alpha   60.00062788
_cell_angle_beta   60.00062816
_cell_angle_gamma   60.00062776
_symmetry_Int_Tables_number   1
_chemical_formula_structural   BeGaRh2
_chemical_formula_sum   'Be1 Ga1 Rh2'
_cell_volume   48.70171804
_cell_formula_units_Z   1
loop_
 _symmetry_equiv_pos_site_id
 _symmetry_equiv_pos_as_xyz
  1  'x, y, z'
loop_
 _atom_site_type_symbol
 _atom_site_label
 _atom_site_symmetry_multiplicity
 _atom_site_fract_x
 _atom_site_fract_y
 _atom_site_fract_z
 _atom_site_occupancy
  Be  Be0  1  0.25000083  0.25000083  0.25000082  1
  Ga  Ga0  1  0.74999994  0.74999993  0.74999994  1
  Rh  Rh0  1  -0.00000015  -0.00000015  -0.00000015  1
  Rh  Rh1  1  0.49999939  0.49999939  0.49999939  1
loop_
_geom_bond_atom_site_label_1
_geom_bond_atom_site_label_2
_geom_bond_distance
_geom_bond_site_symmetry_2
Be0 Rh1 2.510126 1_555
Be0 Rh0 2.510150 1_555
Be0 Rh0 2.510168 1_655
Be0 Rh0 2.510168 1_565
Be0 Rh0 2.510168 1_556
Be0 Rh1 2.510177 1_554
Be0 Rh1 2.510177 1_455
Be0 Rh1 2.510177 1_545
Be0 Ga0 2.898482 1_554
Be0 Ga0 2.898482 1_455
Be0 Ga0 2.898482 1_545
Be0 Ga0 2.898493 1_454
Be0 Ga0 2.898493 1_544
Be0 Ga0 2.898493 1_445
Ga0 Rh0 2.510139 1_666
Ga0 Rh1 2.510145 1_555
Ga0 Rh1 2.510170 1_655
Ga0 Rh1 2.510170 1_556
Ga0 Rh1 2.510170 1_565
Ga0 Rh0 2.510172 1_656
Ga0 Rh0 2.510172 1_566
Ga0 Rh0 2.510172 1_665
Rh0 Rh1 2.898485 1_545
Rh0 Rh1 2.898485 1_554
Rh0 Rh1 2.898485 1_455
Rh0 Rh1 2.898490 1_454
Rh0 Rh1 2.898490 1_445
Rh0 Rh1 2.898490 1_544
