# generated using pymatgen
data_Li3V3P8O29
_symmetry_space_group_name_H-M   'P 1'
_cell_length_a   9.76396076
_cell_length_b   9.76396076
_cell_length_c   14.29960050
_cell_angle_alpha   89.43778444
_cell_angle_beta   89.43778444
_cell_angle_gamma   59.74040409
_symmetry_Int_Tables_number   1
_chemical_formula_structural   Li3V3P8O29
_chemical_formula_sum   'Li6 V6 P16 O58'
_cell_volume   1177.43454522
_cell_formula_units_Z   2
loop_
 _symmetry_equiv_pos_site_id
 _symmetry_equiv_pos_as_xyz
  1  'x, y, z'
loop_
 _atom_site_type_symbol
 _atom_site_label
 _atom_site_symmetry_multiplicity
 _atom_site_fract_x
 _atom_site_fract_y
 _atom_site_fract_z
 _atom_site_occupancy
  Li  Li0  1  0.76896900  0.90392400  0.80762700  1
  Li  Li1  1  0.76819900  0.31823000  0.30437300  1
  Li  Li2  1  0.68177000  0.23180100  0.69562700  1
  Li  Li3  1  0.09607600  0.23103100  0.19237300  1
  Li  Li4  1  0.07216800  0.99174000  0.74211900  1
  Li  Li5  1  0.00826000  0.92783200  0.25788100  1
  V  V0  1  0.43118500  0.56881500  0.00000000  1
  V  V1  1  0.55780100  0.44219900  0.50000000  1
  V  V2  1  0.99966800  0.56535800  0.50489300  1
  V  V3  1  0.99703900  0.44045900  0.99389500  1
  V  V4  1  0.55954100  0.00296100  0.00610500  1
  V  V5  1  0.43464200  0.00033200  0.49510700  1
  P  P0  1  0.77056400  0.91514300  0.59063700  1
  P  P1  1  0.91431100  0.77443500  0.09181600  1
  P  P2  1  0.30219600  0.91557700  0.09069100  1
  P  P3  1  0.66311700  0.67166900  0.88215700  1
  P  P4  1  0.67104100  0.66363500  0.38379100  1
  P  P5  1  0.30336900  0.78379900  0.59013200  1
  P  P6  1  0.21620100  0.69663100  0.40986800  1
  P  P7  1  0.91289300  0.30387800  0.59173500  1
  P  P8  1  0.08442300  0.69780400  0.90930900  1
  P  P9  1  0.77564800  0.31417100  0.08939400  1
  P  P10  1  0.68582900  0.22435200  0.91060600  1
  P  P11  1  0.32833100  0.33688300  0.11784300  1
  P  P12  1  0.33636500  0.32895900  0.61620900  1
  P  P13  1  0.69612200  0.08710700  0.40826500  1
  P  P14  1  0.08485700  0.22943600  0.40936300  1
  P  P15  1  0.22556500  0.08568900  0.90818400  1
  O  O0  1  0.80127300  0.00875200  0.32714100  1
  O  O1  1  0.73775500  0.90897400  0.07985500  1
  O  O2  1  0.99586600  0.79505800  0.82679000  1
  O  O3  1  0.91275700  0.74332200  0.58550500  1
  O  O4  1  0.61638200  0.91190200  0.57301800  1
  O  O5  1  0.66786600  0.81742400  0.92226100  1
  O  O6  1  0.46165000  0.91633200  0.07890700  1
  O  O7  1  0.21107000  0.01305200  0.82196600  1
  O  O8  1  0.34638300  0.91598200  0.57727400  1
  O  O9  1  0.81511400  0.66223100  0.43279300  1
  O  O10  1  0.92000200  0.61478500  0.07661700  1
  O  O11  1  0.52138400  0.81288600  0.42445800  1
  O  O12  1  0.67262500  0.66390200  0.77865800  1
  O  O13  1  0.68009800  0.64843100  0.28056700  1
  O  O14  1  0.51829700  0.66756100  0.92762900  1
  O  O15  1  0.92125500  0.45817500  0.58209500  1
  O  O16  1  0.81321700  0.52240900  0.92940000  1
  O  O17  1  0.34114000  0.74141600  0.08479900  1
  O  O18  1  0.19811700  0.80188300  0.50000000  1
  O  O19  1  0.19893000  0.78778900  0.32361200  1
  O  O20  1  0.21221100  0.80107000  0.67638800  1
  O  O21  1  0.45985900  0.62041800  0.57692300  1
  O  O22  1  0.67039600  0.51336500  0.42809500  1
  O  O23  1  0.25858400  0.65886000  0.91520100  1
  O  O24  1  0.61749700  0.47160100  0.07361100  1
  O  O25  1  0.91914200  0.34235300  0.08335200  1
  O  O26  1  0.00239000  0.79790800  0.00247600  1
  O  O27  1  0.98694800  0.78893000  0.17803400  1
  O  O28  1  0.00349800  0.23313600  0.31987600  1
  O  O29  1  0.08401800  0.65361700  0.42272600  1
  O  O30  1  0.37958200  0.54014100  0.42307700  1
  O  O31  1  0.73518800  0.34600200  0.58676800  1
  O  O32  1  0.33243900  0.48170300  0.07237100  1
  O  O33  1  0.52839900  0.38250300  0.92638900  1
  O  O34  1  0.76574100  0.21796000  0.82011900  1
  O  O35  1  0.78204000  0.23425900  0.17988100  1
  O  O36  1  0.79588700  0.20411300  0.00000000  1
  O  O37  1  0.65399800  0.26481200  0.41323200  1
  O  O38  1  0.18711400  0.47861600  0.57554200  1
  O  O39  1  0.08366800  0.53835000  0.92109300  1
  O  O40  1  0.48663500  0.32960400  0.57190500  1
  O  O41  1  0.35156900  0.31990200  0.71943300  1
  O  O42  1  0.33609800  0.32737500  0.22134200  1
  O  O43  1  0.47759100  0.18678300  0.07060000  1
  O  O44  1  0.08809800  0.38361800  0.42698200  1
  O  O45  1  0.18257600  0.33213400  0.07773900  1
  O  O46  1  0.65764700  0.08085800  0.91664800  1
  O  O47  1  0.79244300  0.01038500  0.50525500  1
  O  O48  1  0.76686400  0.99650200  0.68012400  1
  O  O49  1  0.54182500  0.07874500  0.41790500  1
  O  O50  1  0.33776900  0.18488600  0.56720700  1
  O  O51  1  0.38521500  0.07999800  0.92338300  1
  O  O52  1  0.09102600  0.26224500  0.92014500  1
  O  O53  1  0.99124800  0.19872700  0.67285900  1
  O  O54  1  0.98961500  0.20755700  0.49474500  1
  O  O55  1  0.25667800  0.08724300  0.41449500  1
  O  O56  1  0.20494200  0.00413400  0.17321000  1
  O  O57  1  0.20209200  0.99761000  0.99752400  1
loop_
_geom_bond_atom_site_label_1
_geom_bond_atom_site_label_2
_geom_bond_distance
_geom_bond_site_symmetry_2
Li0 O2 1.935426 1_555
Li0 O48 2.022718 1_555
Li0 O46 2.173343 1_565
Li0 O5 2.270729 1_555
Li1 O35 1.942111 1_555
Li1 O28 2.024923 1_655
Li1 O37 2.115337 1_555
Li1 O22 2.423081 1_555
Li2 O34 1.942111 1_555
Li2 O48 2.024923 1_545
Li2 O31 2.115337 1_555
Li2 O40 2.423081 1_555
Li3 O56 1.935426 1_555
Li3 O28 2.022718 1_555
Li3 O25 2.173343 1_455
Li3 O45 2.270729 1_555
Li4 O7 1.872382 1_565
Li4 O20 1.913796 1_555
Li4 O53 2.014047 1_465
Li5 O27 1.872382 1_455
Li5 O19 1.913796 1_555
Li5 O0 2.014047 1_465
O0 P13 1.479023 1_555
O1 P1 1.563888 1_555
O1 V4 1.841152 1_565
O2 P8 1.487366 1_655
O3 P0 1.549333 1_555
O3 V2 1.897960 1_555
O4 P0 1.544798 1_555
O4 V5 1.900351 1_565
O5 P3 1.561861 1_555
O5 V4 1.981059 1_566
O6 P2 1.568053 1_555
O6 V4 1.868358 1_565
O7 P15 1.471318 1_555
O8 P5 1.554363 1_555
O8 V5 1.864908 1_565
O9 P4 1.571551 1_555
O9 V2 1.871973 1_555
O10 P1 1.548983 1_555
O10 V3 1.895762 1_554
O11 P4 1.565533 1_555
O11 V5 1.882782 1_565
O12 P3 1.482283 1_555
O13 P4 1.482270 1_555
O14 P3 1.569222 1_555
O14 V0 1.874472 1_556
O15 P7 1.554037 1_555
O15 V2 1.915304 1_555
O16 P3 1.604895 1_555
O16 V3 1.811855 1_555
O17 P2 1.547222 1_555
O17 V0 1.899838 1_555
O18 P5 1.608441 1_555
O18 P6 1.608441 1_555
O19 P6 1.474197 1_555
O20 P5 1.474197 1_555
O21 P5 1.568064 1_555
O21 V1 1.868761 1_555
O22 P4 1.595355 1_555
O22 V1 1.866111 1_555
O23 P8 1.547222 1_555
O23 V0 1.899838 1_556
O24 P9 1.551140 1_555
O24 V0 1.896300 1_555
O25 P9 1.559451 1_555
O25 V3 1.955390 1_554
O26 P8 1.608533 1_554
O26 P1 1.611068 1_455
O27 P1 1.471318 1_555
O28 P14 1.503303 1_555
O29 P6 1.554363 1_555
O29 V2 1.864908 1_455
O30 P6 1.568064 1_555
O30 V1 1.868761 1_555
O31 P7 1.570798 1_555
O31 V1 1.949678 1_555
O32 P11 1.569222 1_555
O32 V0 1.874472 1_555
O33 P10 1.551140 1_555
O33 V0 1.896300 1_556
O34 P10 1.489846 1_555
O35 P9 1.489846 1_555
O36 P9 1.623530 1_555
O36 P10 1.623530 1_554
O37 P13 1.570798 1_555
O37 V1 1.949678 1_555
O38 P12 1.565533 1_555
O38 V2 1.882782 1_455
O39 P8 1.568053 1_555
O39 V3 1.868358 1_455
O40 P12 1.595355 1_555
O40 V1 1.866111 1_555
O41 P12 1.482270 1_555
O42 P11 1.482283 1_555
O43 P11 1.604895 1_555
O43 V4 1.811855 1_555
O44 P14 1.544798 1_555
O44 V2 1.900351 1_455
O45 P11 1.561861 1_555
O45 V3 1.981059 1_454
O46 P10 1.559451 1_555
O46 V4 1.955390 1_556
O47 P0 1.604339 1_545
O47 P13 1.632289 1_555
O48 P0 1.503303 1_555
O49 P13 1.554037 1_555
O49 V5 1.915304 1_555
O50 P12 1.571551 1_555
O50 V5 1.871973 1_555
O51 P15 1.548983 1_555
O51 V4 1.895762 1_556
O52 P15 1.563888 1_555
O52 V3 1.841152 1_455
O53 P7 1.479023 1_555
O54 P14 1.604339 1_655
O54 P7 1.632289 1_555
O55 P14 1.549333 1_555
O55 V5 1.897960 1_555
O56 P2 1.487366 1_545
O57 P2 1.608533 1_556
O57 P15 1.611068 1_565
