# generated using pymatgen
data_Tm2CoIr
_symmetry_space_group_name_H-M   'P 1'
_cell_length_a   4.73913571
_cell_length_b   4.73913571
_cell_length_c   4.73913571
_cell_angle_alpha   60.00000000
_cell_angle_beta   60.00000000
_cell_angle_gamma   60.00000000
_symmetry_Int_Tables_number   1
_chemical_formula_structural   Tm2CoIr
_chemical_formula_sum   'Tm2 Co1 Ir1'
_cell_volume   75.26315836
_cell_formula_units_Z   1
loop_
 _symmetry_equiv_pos_site_id
 _symmetry_equiv_pos_as_xyz
  1  'x, y, z'
loop_
 _atom_site_type_symbol
 _atom_site_label
 _atom_site_symmetry_multiplicity
 _atom_site_fract_x
 _atom_site_fract_y
 _atom_site_fract_z
 _atom_site_occupancy
  Tm  Tm0  1  0.25000000  0.25000000  0.25000000  1
  Tm  Tm1  1  0.75000000  0.75000000  0.75000000  1
  Co  Co0  1  0.50000000  0.50000000  0.50000000  1
  Ir  Ir0  1  0.00000000  0.00000000  0.00000000  1
loop_
_geom_bond_atom_site_label_1
_geom_bond_atom_site_label_2
_geom_bond_distance
_geom_bond_site_symmetry_2
Tm0 Tm1 3.351075 1_445
Tm0 Tm1 3.351075 1_454
Tm0 Tm1 3.351075 1_544
Tm0 Tm1 3.351075 1_545
Tm0 Tm1 3.351075 1_554
Tm0 Tm1 3.351075 1_455
Co0 Tm1 2.902116 1_554
Co0 Tm0 2.902116 1_655
Co0 Tm1 2.902116 1_455
Co0 Tm1 2.902116 1_555
Co0 Tm0 2.902116 1_555
Co0 Tm1 2.902116 1_545
Co0 Tm0 2.902116 1_556
Co0 Tm0 2.902116 1_565
Co0 Ir0 3.351075 1_556
Co0 Ir0 3.351075 1_565
Co0 Ir0 3.351075 1_665
Co0 Ir0 3.351075 1_656
Co0 Ir0 3.351075 1_655
Co0 Ir0 3.351075 1_566
Ir0 Tm0 2.902116 1_545
Ir0 Tm1 2.902116 1_444
Ir0 Tm1 2.902116 1_445
Ir0 Tm1 2.902116 1_454
Ir0 Tm1 2.902116 1_544
Ir0 Tm0 2.902116 1_555
Ir0 Tm0 2.902116 1_554
Ir0 Tm0 2.902116 1_455
