# generated using pymatgen
data_Li2WS4
_symmetry_space_group_name_H-M   'P 1'
_cell_length_a   6.06981300
_cell_length_b   6.06981300
_cell_length_c   5.45009000
_cell_angle_alpha   90.00000000
_cell_angle_beta   90.00000000
_cell_angle_gamma   90.00000000
_symmetry_Int_Tables_number   1
_chemical_formula_structural   Li2WS4
_chemical_formula_sum   'Li2 W1 S4'
_cell_volume   200.79564855
_cell_formula_units_Z   1
loop_
 _symmetry_equiv_pos_site_id
 _symmetry_equiv_pos_as_xyz
  1  'x, y, z'
loop_
 _atom_site_type_symbol
 _atom_site_label
 _atom_site_symmetry_multiplicity
 _atom_site_fract_x
 _atom_site_fract_y
 _atom_site_fract_z
 _atom_site_occupancy
  Li  Li0  1  0.50000000  0.00000000  0.00000000  1
  Li  Li1  1  0.00000000  0.50000000  0.00000000  1
  W  W0  1  0.00000000  0.00000000  0.00000000  1
  S  S0  1  0.21312000  0.21312000  0.22984500  1
  S  S1  1  0.78688000  0.21312000  0.77015500  1
  S  S2  1  0.21312000  0.78688000  0.77015500  1
  S  S3  1  0.78688000  0.78688000  0.22984500  1
loop_
_geom_bond_atom_site_label_1
_geom_bond_atom_site_label_2
_geom_bond_distance
_geom_bond_site_symmetry_2
Li0 S0 2.504945 1_555
Li0 S3 2.504945 1_545
Li0 S1 2.504945 1_554
Li0 S2 2.504945 1_544
Li1 S3 2.504945 1_455
Li1 S0 2.504945 1_555
Li1 S1 2.504945 1_454
Li1 S2 2.504945 1_554
S0 W0 2.217204 1_555
S1 W0 2.217204 1_656
S2 W0 2.217204 1_566
S3 W0 2.217204 1_665
