# generated using pymatgen
data_Fe10OF19
_symmetry_space_group_name_H-M   'P 1'
_cell_length_a   17.32032504
_cell_length_b   17.32032504
_cell_length_c   3.28715000
_cell_angle_alpha   90.00000000
_cell_angle_beta   90.00000000
_cell_angle_gamma   157.28056171
_symmetry_Int_Tables_number   1
_chemical_formula_structural   Fe10OF19
_chemical_formula_sum   'Fe10 O1 F19'
_cell_volume   380.85988829
_cell_formula_units_Z   1
loop_
 _symmetry_equiv_pos_site_id
 _symmetry_equiv_pos_as_xyz
  1  'x, y, z'
loop_
 _atom_site_type_symbol
 _atom_site_label
 _atom_site_symmetry_multiplicity
 _atom_site_fract_x
 _atom_site_fract_y
 _atom_site_fract_z
 _atom_site_occupancy
  Fe  Fe0  1  0.00034800  0.99965200  0.00000000  1
  Fe  Fe1  1  0.49801800  0.50198200  0.50000000  1
  Fe  Fe2  1  0.59884900  0.40115100  0.00000000  1
  Fe  Fe3  1  0.10008900  0.89991100  0.50000000  1
  Fe  Fe4  1  0.69955400  0.30044600  0.50000000  1
  Fe  Fe5  1  0.20012700  0.79987300  0.00000000  1
  Fe  Fe6  1  0.79955900  0.20044100  0.00000000  1
  Fe  Fe7  1  0.89979700  0.10020300  0.50000000  1
  Fe  Fe8  1  0.30067100  0.69932900  0.50000000  1
  Fe  Fe9  1  0.40681100  0.59318900  0.00000000  1
  O  O0  1  0.43734200  0.56265800  0.50000000  1
  F  F0  1  0.70117100  0.70072300  0.00000000  1
  F  F1  1  0.29927700  0.29882900  0.00000000  1
  F  F2  1  0.90044500  0.69986100  0.00000000  1
  F  F3  1  0.55894900  0.44105100  0.50000000  1
  F  F4  1  0.04001400  0.95998600  0.50000000  1
  F  F5  1  0.63978900  0.36021100  0.50000000  1
  F  F6  1  0.30013900  0.09955500  0.00000000  1
  F  F7  1  0.90029600  0.49966000  0.00000000  1
  F  F8  1  0.50034000  0.09970400  0.00000000  1
  F  F9  1  0.16031000  0.83969000  0.50000000  1
  F  F10  1  0.75983200  0.24016800  0.50000000  1
  F  F11  1  0.24043900  0.75956100  0.50000000  1
  F  F12  1  0.83992800  0.16007200  0.50000000  1
  F  F13  1  0.50004300  0.89962400  0.00000000  1
  F  F14  1  0.10037600  0.49995700  0.00000000  1
  F  F15  1  0.69285000  0.89647800  0.00000000  1
  F  F16  1  0.36178100  0.63821900  0.50000000  1
  F  F17  1  0.95934700  0.04065300  0.50000000  1
  F  F18  1  0.10352200  0.30715000  0.00000000  1
loop_
_geom_bond_atom_site_label_1
_geom_bond_atom_site_label_2
_geom_bond_distance
_geom_bond_site_symmetry_2
Fe1 O0 2.060680 1_555
Fe9 O0 1.943319 1_554
Fe9 O0 1.943319 1_555
F0 Fe0 2.040474 1_655
F0 Fe1 2.141686 1_554
F0 Fe1 2.141686 1_555
F1 Fe0 2.040474 1_545
F1 Fe1 2.141686 1_554
F1 Fe1 2.141686 1_555
F2 Fe2 2.048561 1_555
F2 Fe3 2.135586 1_655
F2 Fe3 2.135586 1_654
F3 Fe1 2.069341 1_555
F3 Fe2 2.130163 1_555
F3 Fe2 2.130163 1_556
F4 Fe3 2.040269 1_555
F4 Fe0 2.125116 1_555
F4 Fe0 2.125116 1_556
F5 Fe4 2.029741 1_555
F5 Fe2 2.152804 1_556
F5 Fe2 2.152804 1_555
F6 Fe2 2.048561 1_555
F6 Fe3 2.135586 1_544
F6 Fe3 2.135586 1_545
F7 Fe5 2.047092 1_655
F7 Fe4 2.136303 1_555
F7 Fe4 2.136303 1_554
F8 Fe5 2.047092 1_545
F8 Fe4 2.136303 1_555
F8 Fe4 2.136303 1_554
F9 Fe3 2.045228 1_555
F9 Fe5 2.128371 1_555
F9 Fe5 2.128371 1_556
F10 Fe4 2.047164 1_555
F10 Fe6 2.126430 1_555
F10 Fe6 2.126430 1_556
F11 Fe8 2.045601 1_555
F11 Fe5 2.139091 1_555
F11 Fe5 2.139091 1_556
F12 Fe7 2.033273 1_555
F12 Fe6 2.140331 1_555
F12 Fe6 2.140331 1_556
F13 Fe6 2.048186 1_565
F13 Fe8 2.135574 1_555
F13 Fe8 2.135574 1_554
F14 Fe6 2.048186 1_455
F14 Fe8 2.135574 1_554
F14 Fe8 2.135574 1_555
F15 Fe9 2.031750 1_555
F15 Fe7 2.160374 1_565
F15 Fe7 2.160374 1_564
F15 F16 2.876143 1_555
F15 F16 2.876143 1_554
F16 Fe8 2.075420 1_555
F16 Fe9 2.245023 1_555
F16 Fe9 2.245023 1_556
F16 O0 2.566205 1_555
F16 F18 2.876143 1_556
F16 F18 2.876143 1_555
F17 Fe7 2.022439 1_555
F17 Fe0 2.154143 1_646
F17 Fe0 2.154143 1_645
F18 Fe9 2.031750 1_555
F18 Fe7 2.160374 1_455
F18 Fe7 2.160374 1_454
