# generated using pymatgen
data_PaInAu2
_symmetry_space_group_name_H-M   'P 1'
_cell_length_a   4.94910301
_cell_length_b   4.94910301
_cell_length_c   4.94910301
_cell_angle_alpha   60.00000000
_cell_angle_beta   60.00000000
_cell_angle_gamma   60.00000000
_symmetry_Int_Tables_number   1
_chemical_formula_structural   PaInAu2
_chemical_formula_sum   'Pa1 In1 Au2'
_cell_volume   85.71651041
_cell_formula_units_Z   1
loop_
 _symmetry_equiv_pos_site_id
 _symmetry_equiv_pos_as_xyz
  1  'x, y, z'
loop_
 _atom_site_type_symbol
 _atom_site_label
 _atom_site_symmetry_multiplicity
 _atom_site_fract_x
 _atom_site_fract_y
 _atom_site_fract_z
 _atom_site_occupancy
  Pa  Pa0  1  0.50000000  0.50000000  0.50000000  1
  In  In0  1  0.00000000  0.00000000  -0.00000000  1
  Au  Au0  1  0.75000000  0.75000000  0.75000000  1
  Au  Au1  1  0.25000000  0.25000000  0.25000000  1
loop_
_geom_bond_atom_site_label_1
_geom_bond_atom_site_label_2
_geom_bond_distance
_geom_bond_site_symmetry_2
In0 Pa0 3.499544 1_544
In0 Pa0 3.499544 1_554
In0 Pa0 3.499544 1_445
In0 Pa0 3.499544 1_454
In0 Pa0 3.499544 1_455
In0 Pa0 3.499544 1_545
Au0 Pa0 3.030694 1_555
Au0 Pa0 3.030694 1_556
Au0 In0 3.030694 1_566
Au0 In0 3.030694 1_656
Au0 In0 3.030694 1_666
Au0 In0 3.030694 1_665
Au0 Pa0 3.030694 1_565
Au0 Pa0 3.030694 1_655
Au0 Au1 3.499544 1_556
Au0 Au1 3.499544 1_566
Au0 Au1 3.499544 1_655
Au0 Au1 3.499544 1_565
Au0 Au1 3.499544 1_656
Au0 Au1 3.499544 1_665
Au1 In0 3.030694 1_556
Au1 In0 3.030694 1_555
Au1 Pa0 3.030694 1_545
Au1 Pa0 3.030694 1_555
Au1 In0 3.030694 1_565
Au1 Pa0 3.030694 1_455
Au1 In0 3.030694 1_655
Au1 Pa0 3.030694 1_554
