# generated using pymatgen
data_Lu2CuRu
_symmetry_space_group_name_H-M   'P 1'
_cell_length_a   4.70370353
_cell_length_b   4.70372709
_cell_length_c   4.70371649
_cell_angle_alpha   60.00008608
_cell_angle_beta   60.00053881
_cell_angle_gamma   60.00057357
_symmetry_Int_Tables_number   1
_chemical_formula_structural   Lu2CuRu
_chemical_formula_sum   'Lu2 Cu1 Ru1'
_cell_volume   73.58886946
_cell_formula_units_Z   1
loop_
 _symmetry_equiv_pos_site_id
 _symmetry_equiv_pos_as_xyz
  1  'x, y, z'
loop_
 _atom_site_type_symbol
 _atom_site_label
 _atom_site_symmetry_multiplicity
 _atom_site_fract_x
 _atom_site_fract_y
 _atom_site_fract_z
 _atom_site_occupancy
  Lu  Lu0  1  0.99999908  -0.00000007  0.00000099  1
  Lu  Lu1  1  0.50000048  0.49999989  0.50000080  1
  Cu  Cu0  1  0.25000028  0.24999995  0.24999795  1
  Ru  Ru0  1  0.74999917  0.74999923  0.74999926  1
loop_
_geom_bond_atom_site_label_1
_geom_bond_atom_site_label_2
_geom_bond_distance
_geom_bond_site_symmetry_2
Lu0 Ru0 2.880426 1_544
Lu0 Ru0 2.880429 1_545
Lu0 Ru0 2.880441 1_554
Lu0 Ru0 2.880442 1_644
Lu0 Lu1 3.326024 1_554
Lu0 Lu1 3.326026 1_545
Lu0 Lu1 3.326032 1_645
Lu0 Lu1 3.326035 1_654
Lu0 Lu1 3.326059 1_555
Lu0 Lu1 3.326060 1_644
Lu1 Ru0 2.880404 1_555
Lu1 Ru0 2.880442 1_554
Lu1 Ru0 2.880446 1_545
Lu1 Ru0 2.880447 1_455
Cu0 Lu0 2.880410 1_455
Cu0 Lu1 2.880425 1_554
Cu0 Lu1 2.880429 1_555
Cu0 Lu0 2.880437 1_555
Cu0 Lu1 2.880441 1_455
Cu0 Lu0 2.880443 1_465
Cu0 Lu1 2.880443 1_545
Cu0 Lu0 2.880447 1_456
Cu0 Ru0 3.326024 1_554
Cu0 Ru0 3.326028 1_454
Cu0 Ru0 3.326029 1_545
Cu0 Ru0 3.326036 1_445
Cu0 Ru0 3.326057 1_544
Cu0 Ru0 3.326061 1_455
