# generated using pymatgen
data_MnAs3(PbO3)3
_symmetry_space_group_name_H-M   'P 1'
_cell_length_a   6.70109201
_cell_length_b   7.40834780
_cell_length_c   10.99790374
_cell_angle_alpha   95.38223085
_cell_angle_beta   90.00397638
_cell_angle_gamma   90.00565104
_symmetry_Int_Tables_number   1
_chemical_formula_structural   MnAs3(PbO3)3
_chemical_formula_sum   'Mn2 As6 Pb6 O18'
_cell_volume   543.57298167
_cell_formula_units_Z   2
loop_
 _symmetry_equiv_pos_site_id
 _symmetry_equiv_pos_as_xyz
  1  'x, y, z'
loop_
 _atom_site_type_symbol
 _atom_site_label
 _atom_site_symmetry_multiplicity
 _atom_site_fract_x
 _atom_site_fract_y
 _atom_site_fract_z
 _atom_site_occupancy
  Mn  Mn0  1  0.98594700  0.50610800  0.04529400  1
  Mn  Mn1  1  0.01400300  0.00614100  0.54528400  1
  As  As0  1  0.79277900  0.28890900  0.78048800  1
  As  As1  1  0.20711500  0.78893800  0.28053200  1
  As  As2  1  0.88399400  0.23972800  0.30313800  1
  As  As3  1  0.11599200  0.73976300  0.80311200  1
  As  As4  1  0.47846600  0.11654200  0.48991700  1
  As  As5  1  0.52155700  0.61655800  0.98992400  1
  Pb  Pb0  1  0.14128200  0.50068100  0.50772900  1
  Pb  Pb1  1  0.85893100  0.00077800  0.00769400  1
  Pb  Pb2  1  0.37020600  0.30717200  0.19361200  1
  Pb  Pb3  1  0.62972400  0.80716700  0.69363200  1
  Pb  Pb4  1  0.29058100  0.21939200  0.79292300  1
  Pb  Pb5  1  0.70936100  0.71937100  0.29288400  1
  O  O0  1  0.98941500  0.21396600  0.67139300  1
  O  O1  1  0.01059000  0.71393300  0.17138000  1
  O  O2  1  0.68310100  0.07639800  0.82114900  1
  O  O3  1  0.31686900  0.57640500  0.32116300  1
  O  O4  1  0.96475400  0.31161900  0.90981800  1
  O  O5  1  0.03522400  0.81166100  0.40983100  1
  O  O6  1  0.03137600  0.28302500  0.16970600  1
  O  O7  1  0.96856800  0.78304100  0.66972500  1
  O  O8  1  0.83566300  0.46368300  0.37140500  1
  O  O9  1  0.16437700  0.96387800  0.87140100  1
  O  O10  1  0.08443600  0.19874400  0.40635900  1
  O  O11  1  0.91567700  0.69866000  0.90635900  1
  O  O12  1  0.30758700  0.99479700  0.58688800  1
  O  O13  1  0.69243800  0.49480700  0.08686700  1
  O  O14  1  0.29080800  0.48946200  0.03784200  1
  O  O15  1  0.70918800  0.98949100  0.53785600  1
  O  O16  1  0.46988400  0.32389400  0.57873000  1
  O  O17  1  0.53010700  0.82389200  0.07876300  1
loop_
_geom_bond_atom_site_label_1
_geom_bond_atom_site_label_2
_geom_bond_distance
_geom_bond_site_symmetry_2
Mn0 O4 1.978218 1_554
Mn0 O1 1.979910 1_655
Mn0 O13 2.022808 1_555
Mn0 O14 2.047816 1_655
Mn0 O11 2.236138 1_554
Mn0 O6 2.262839 1_655
Mn1 O5 1.978050 1_545
Mn1 O0 1.980079 1_455
Mn1 O12 2.023349 1_545
Mn1 O15 2.047465 1_445
Mn1 O10 2.236538 1_555
Mn1 O7 2.263140 1_445
As0 O4 1.826013 1_555
As0 O2 1.830473 1_555
As0 O0 1.832887 1_555
As1 O5 1.825543 1_555
As1 O3 1.830814 1_555
As1 O1 1.832658 1_555
As2 O8 1.785433 1_555
As2 O10 1.802654 1_655
As2 O6 1.822141 1_655
As3 O9 1.786556 1_555
As3 O11 1.802479 1_455
As3 O7 1.821775 1_455
As4 O16 1.742303 1_555
As4 O12 1.855388 1_545
As4 O15 1.909859 1_545
As5 O17 1.742308 1_556
As5 O13 1.855248 1_556
As5 O14 1.910013 1_556
O0 Pb4 2.418775 1_655
O0 Pb0 3.082909 1_655
O1 Pb5 2.419128 1_455
O1 Pb1 3.083378 1_465
O2 Pb3 2.355422 1_545
O2 Pb1 2.475200 1_556
O2 Pb4 2.863435 1_555
O3 Pb2 2.355675 1_555
O3 Pb0 2.474939 1_555
O3 Pb5 2.863115 1_555
O4 Pb4 2.592820 1_655
O4 Pb1 2.725683 1_556
O5 Pb5 2.593131 1_455
O5 Pb0 2.727195 1_555
O6 Pb2 2.290732 1_555
O6 Pb1 2.860531 1_455
O7 Pb3 2.290886 1_555
O7 Pb0 2.861992 1_655
O8 Pb5 2.314574 1_555
O8 Pb0 2.537629 1_655
O9 Pb4 2.312928 1_565
O9 Pb1 2.536669 1_466
O10 Pb0 2.433819 1_555
O10 Pb2 3.184304 1_555
O11 Pb1 2.434839 1_566
O11 Pb3 3.184963 1_555
O12 Pb4 2.684920 1_565
O12 Pb3 2.876906 1_555
O13 Pb5 2.684589 1_555
O13 Pb2 2.877324 1_555
O14 Pb2 2.340030 1_555
O14 Pb4 3.201176 1_554
O15 Pb3 2.340338 1_555
O15 Pb5 3.201835 1_555
O16 Pb0 2.714040 1_555
O16 Pb4 2.816837 1_555
O17 Pb1 2.715748 1_565
O17 Pb5 2.815990 1_555
