# generated using pymatgen
data_Li11V6O5F19
_symmetry_space_group_name_H-M   'P 1'
_cell_length_a   5.17266600
_cell_length_b   5.42064563
_cell_length_c   16.32009395
_cell_angle_alpha   81.15673717
_cell_angle_beta   89.91755350
_cell_angle_gamma   89.69534182
_symmetry_Int_Tables_number   1
_chemical_formula_structural   Li11V6O5F19
_chemical_formula_sum   'Li11 V6 O5 F19'
_cell_volume   452.15601476
_cell_formula_units_Z   1
loop_
 _symmetry_equiv_pos_site_id
 _symmetry_equiv_pos_as_xyz
  1  'x, y, z'
loop_
 _atom_site_type_symbol
 _atom_site_label
 _atom_site_symmetry_multiplicity
 _atom_site_fract_x
 _atom_site_fract_y
 _atom_site_fract_z
 _atom_site_occupancy
  Li  Li0  1  0.48698000  0.67362100  0.56061100  1
  Li  Li1  1  0.01337500  0.83014000  0.22480700  1
  Li  Li2  1  0.01905300  0.48396900  0.89151800  1
  Li  Li3  1  0.50970000  0.00535600  0.10570300  1
  Li  Li4  1  0.52621500  0.49158400  0.79456900  1
  Li  Li5  1  0.98242500  0.82230400  0.43957900  1
  Li  Li6  1  0.01548600  0.15879800  0.55632200  1
  Li  Li7  1  0.48596500  0.99691900  0.89120000  1
  Li  Li8  1  0.48401800  0.34458500  0.22366900  1
  Li  Li9  1  0.98613200  0.49641000  0.10724900  1
  Li  Li10  1  0.50925700  0.33981100  0.43704400  1
  V  V0  1  0.49743000  0.46612400  0.00133200  1
  V  V1  1  0.49434600  0.80041100  0.33349600  1
  V  V2  1  0.98870700  0.68644100  0.66593500  1
  V  V3  1  0.99925900  0.02848400  0.00184200  1
  V  V4  1  0.51556300  0.15110400  0.66511500  1
  V  V5  1  0.99483700  0.35877300  0.33467800  1
  O  O0  1  0.68435500  0.20483800  0.96432000  1
  O  O1  1  0.68757500  0.87597800  0.63147800  1
  O  O2  1  0.18843300  0.28594600  0.04135000  1
  O  O3  1  0.67888700  0.53166800  0.29977400  1
  O  O4  1  0.18416800  0.61736600  0.37243500  1
  F  F0  1  0.82662500  0.38059000  0.62601100  1
  F  F1  1  0.32756100  0.48255900  0.68763300  1
  F  F2  1  0.86092800  0.86712800  0.11736000  1
  F  F3  1  0.87783800  0.58400200  0.78106100  1
  F  F4  1  0.63469400  0.69937200  0.45251300  1
  F  F5  1  0.36479100  0.95972000  0.21879000  1
  F  F6  1  0.37336100  0.62526800  0.88390800  1
  F  F7  1  0.13508700  0.79506800  0.54990600  1
  F  F8  1  0.82734000  0.70019000  0.96958400  1
  F  F9  1  0.82664100  0.02976500  0.30324200  1
  F  F10  1  0.32023500  0.12130200  0.36768500  1
  F  F11  1  0.18014500  0.97515800  0.69446900  1
  F  F12  1  0.86096000  0.19822300  0.45009400  1
  F  F13  1  0.14820300  0.13863300  0.88933900  1
  F  F14  1  0.64258600  0.36483900  0.11901000  1
  F  F15  1  0.13536900  0.46623300  0.21744000  1
  F  F16  1  0.59275300  0.13693300  0.78162800  1
  F  F17  1  0.37024600  0.28322500  0.55098600  1
  F  F18  1  0.32531900  0.78891400  0.03491300  1
loop_
_geom_bond_atom_site_label_1
_geom_bond_atom_site_label_2
_geom_bond_distance
_geom_bond_site_symmetry_2
Li0 O1 2.005761 1_555
Li1 O3 2.554045 1_455
Li1 O4 2.656389 1_555
Li2 O0 2.483462 1_455
Li2 O2 2.662394 1_556
Li3 O2 2.380125 1_555
Li3 O0 2.558657 1_554
Li5 O4 1.970410 1_655
Li6 O1 2.485005 1_445
Li7 O0 2.043703 1_565
Li8 O3 1.997218 1_555
Li9 O2 1.978518 1_655
Li10 O4 2.386116 1_555
Li10 O3 2.481520 1_555
O0 V0 1.884827 1_556
O0 V3 1.936092 1_556
O1 V4 1.885043 1_565
O1 V2 1.898936 1_555
O2 V3 1.901053 1_455
O2 V0 1.937164 1_555
O3 V1 1.888501 1_555
O3 V5 1.922506 1_555
O4 V5 1.893569 1_455
O4 V1 1.944923 1_555
F0 Li6 2.024359 1_655
F0 V2 2.055382 1_555
F0 V4 2.077957 1_555
F0 Li0 2.490646 1_555
F1 Li4 2.033712 1_555
F1 V2 2.068790 1_455
F1 V4 2.119502 1_555
F1 Li0 2.322510 1_555
F1 F17 2.631826 1_555
F1 F11 2.791701 1_555
F1 F11 2.843685 1_545
F2 Li1 1.905556 1_655
F2 Li3 1.959852 1_565
F2 V3 2.080149 1_565
F2 Li9 2.138384 1_555
F3 Li4 1.892692 1_555
F3 Li2 1.943257 1_655
F3 V2 1.961346 1_555
F4 Li0 1.907126 1_555
F4 Li5 1.921541 1_555
F4 V1 2.067014 1_555
F4 Li10 2.109205 1_555
F5 Li1 1.949133 1_555
F5 Li3 1.971513 1_565
F5 V1 2.049310 1_555
F5 Li8 2.191777 1_565
F6 Li4 1.895135 1_555
F6 Li2 1.986442 1_555
F6 V0 2.077953 1_556
F6 Li7 2.120939 1_555
F7 Li0 1.931305 1_555
F7 Li5 1.951529 1_455
F7 V2 2.040480 1_455
F7 Li6 2.081208 1_565
F8 Li2 2.103197 1_655
F8 V3 2.130974 1_566
F8 V0 2.146819 1_556
F8 Li9 2.484984 1_556
F8 Li7 2.585608 1_555
F9 Li1 2.038063 1_645
F9 V5 2.121296 1_555
F9 V1 2.139029 1_545
F9 Li5 2.467987 1_545
F9 Li8 2.651929 1_555
F10 Li10 2.016920 1_555
F10 V1 2.104372 1_545
F10 V5 2.132281 1_455
F10 Li5 2.548803 1_445
F10 Li8 2.614832 1_555
F11 V2 1.971967 1_455
F11 V4 2.006013 1_565
F11 Li6 2.471015 1_565
F12 Li6 1.891659 1_655
F12 Li10 1.969788 1_555
F12 V5 2.069672 1_555
F12 Li5 2.161045 1_545
F13 Li7 1.903206 1_545
F13 Li2 1.989681 1_555
F13 V3 1.996234 1_456
F14 Li8 1.881887 1_555
F14 Li9 1.916717 1_555
F14 V0 2.056490 1_555
F14 Li3 2.112249 1_555
F15 Li8 1.914377 1_555
F15 Li9 1.941355 1_455
F15 V5 2.046071 1_455
F15 Li1 2.088856 1_555
F16 Li7 1.913956 1_545
F16 V4 1.933387 1_555
F16 Li4 1.994096 1_555
F17 Li6 1.955651 1_555
F17 Li10 1.972855 1_555
F17 V4 2.033558 1_555
F17 Li0 2.232407 1_555
F18 Li3 2.013130 1_565
F18 V0 2.105080 1_555
F18 V3 2.141534 1_465
F18 Li9 2.536541 1_455
F18 Li7 2.579540 1_554
