# generated using pymatgen
data_Li5Mn6(BO3)6
_symmetry_space_group_name_H-M   'P 1'
_cell_length_a   10.43447600
_cell_length_b   8.87872478
_cell_length_c   8.83475219
_cell_angle_alpha   108.44315683
_cell_angle_beta   98.71572081
_cell_angle_gamma   98.22384335
_symmetry_Int_Tables_number   1
_chemical_formula_structural   Li5Mn6(BO3)6
_chemical_formula_sum   'Li10 Mn12 B12 O36'
_cell_volume   751.40125084
_cell_formula_units_Z   2
loop_
 _symmetry_equiv_pos_site_id
 _symmetry_equiv_pos_as_xyz
  1  'x, y, z'
loop_
 _atom_site_type_symbol
 _atom_site_label
 _atom_site_symmetry_multiplicity
 _atom_site_fract_x
 _atom_site_fract_y
 _atom_site_fract_z
 _atom_site_occupancy
  Li  Li0  1  0.18970100  0.20460900  0.90233000  1
  Li  Li1  1  0.53397700  0.23112800  0.51123500  1
  Li  Li2  1  0.77584300  0.48001300  0.76518900  1
  Li  Li3  1  0.16775400  0.44556300  0.45871100  1
  Li  Li4  1  0.43836100  0.45533300  0.16046800  1
  Li  Li5  1  0.40874700  0.69084400  0.70793200  1
  Li  Li6  1  0.02625300  0.72719300  0.01463400  1
  Li  Li7  1  0.65647300  0.93469900  0.95164300  1
  Li  Li8  1  0.93311900  0.95518900  0.65154500  1
  Li  Li9  1  0.28170100  0.97936600  0.25829900  1
  Mn  Mn0  1  0.81430800  0.17513800  0.83566100  1
  Mn  Mn1  1  0.16224400  0.15891600  0.51545400  1
  Mn  Mn2  1  0.52874600  0.16236100  0.14876400  1
  Mn  Mn3  1  0.41293300  0.40418200  0.77596100  1
  Mn  Mn4  1  0.78374400  0.41144800  0.39864200  1
  Mn  Mn5  1  0.06429300  0.42572500  0.07656300  1
  Mn  Mn6  1  0.65991200  0.64959700  0.04764300  1
  Mn  Mn7  1  0.00749300  0.66783500  0.64965600  1
  Mn  Mn8  1  0.31826200  0.68422900  0.32069300  1
  Mn  Mn9  1  0.91050100  0.91291800  0.27055000  1
  Mn  Mn10  1  0.27251000  0.91453100  0.89322800  1
  Mn  Mn11  1  0.56472300  0.92914300  0.57041600  1
  B  B0  1  0.45956800  0.12687300  0.78969200  1
  B  B1  1  0.79058300  0.13244300  0.46793400  1
  B  B2  1  0.26150700  0.25233700  0.25011100  1
  B  B3  1  0.03446500  0.37274100  0.70669000  1
  B  B4  1  0.71283200  0.38407800  0.05028600  1
  B  B5  1  0.49998000  0.49782100  0.49980700  1
  B  B6  1  0.95207400  0.61542600  0.28818700  1
  B  B7  1  0.28966000  0.62808900  0.95796000  1
  B  B8  1  0.74969600  0.74884900  0.76716300  1
  B  B9  1  0.20511300  0.87467900  0.53410300  1
  B  B10  1  0.53924700  0.87386200  0.19845900  1
  B  B11  1  0.00336100  0.99258500  0.99243900  1
  O  O0  1  0.00032800  0.06846700  0.87393100  1
  O  O1  1  0.57764300  0.05164600  0.79980900  1
  O  O2  1  0.90948100  0.06032800  0.46736200  1
  O  O3  1  0.70415700  0.11861600  0.57144700  1
  O  O4  1  0.37320100  0.12308900  0.89646300  1
  O  O5  1  0.42611400  0.20668500  0.67536500  1
  O  O6  1  0.75101700  0.21819000  0.36082300  1
  O  O7  1  0.37320100  0.16919100  0.28229000  1
  O  O8  1  0.94720200  0.36849400  0.80998700  1
  O  O9  1  0.16314400  0.30867000  0.72202200  1
  O  O10  1  0.82612400  0.31113000  0.04537500  1
  O  O11  1  0.17257500  0.27436400  0.34953400  1
  O  O12  1  0.67191400  0.46971900  0.94108100  1
  O  O13  1  0.24434600  0.31486800  0.11765800  1
  O  O14  1  0.63226700  0.37807000  0.16349900  1
  O  O15  1  0.62352300  0.42505300  0.53594100  1
  O  O16  1  0.99665200  0.44574200  0.58241900  1
  O  O17  1  0.42231300  0.56318800  0.98325900  1
  O  O18  1  0.40417300  0.51138800  0.59888600  1
  O  O19  1  0.86067600  0.59734900  0.38905800  1
  O  O20  1  0.46760700  0.55408500  0.36617200  1
  O  O21  1  0.86574900  0.66905700  0.79555700  1
  O  O22  1  0.08459300  0.55779900  0.30151700  1
  O  O23  1  0.90488300  0.69228400  0.17090000  1
  O  O24  1  0.25462300  0.69715300  0.83411600  1
  O  O25  1  0.64006800  0.74532700  0.85188600  1
  O  O26  1  0.19787700  0.61775400  0.05734500  1
  O  O27  1  0.74707400  0.83113800  0.65888200  1
  O  O28  1  0.33106000  0.80655100  0.54829100  1
  O  O29  1  0.66044700  0.80113300  0.20360800  1
  O  O30  1  0.45617500  0.86994900  0.30609500  1
  O  O31  1  0.11465200  0.86564600  0.63716100  1
  O  O32  1  0.88870800  0.98966300  0.06682000  1
  O  O33  1  0.16824500  0.95236900  0.41746600  1
  O  O34  1  0.50884900  0.95281900  0.08440800  1
  O  O35  1  0.12374600  0.91736300  0.03328000  1
loop_
_geom_bond_atom_site_label_1
_geom_bond_atom_site_label_2
_geom_bond_distance
_geom_bond_site_symmetry_2
Li0 O13 1.798807 1_556
Li0 O9 2.082959 1_555
Li0 O0 2.098384 1_555
Li0 O4 2.143724 1_555
Li1 O15 1.767895 1_555
Li1 O5 2.010054 1_555
Li1 O3 2.234187 1_555
Li1 O7 2.282961 1_555
Li2 O21 1.719778 1_555
Li2 O12 2.042401 1_555
Li2 O8 2.207735 1_555
Li2 O15 2.245772 1_555
Li3 O11 1.533717 1_555
Li3 O22 2.105351 1_555
Li4 O20 1.706399 1_555
Li4 O17 2.076342 1_554
Li4 O13 2.131669 1_555
Li4 O14 2.226513 1_555
Li5 O18 1.569141 1_555
Li5 O24 2.088503 1_555
Li5 O28 2.123734 1_555
Li6 O35 1.787391 1_555
Li6 O23 2.072251 1_455
Li6 O26 2.195117 1_555
Li6 O21 2.226120 1_454
Li7 O25 1.602317 1_555
Li7 O34 2.067249 1_556
Li7 O1 2.084555 1_565
Li8 O0 1.869186 1_665
Li8 O27 2.111283 1_555
Li8 O2 2.117882 1_565
Li8 O31 2.162422 1_655
Li9 O7 1.746242 1_565
Li9 O33 2.018162 1_555
Li9 O30 2.229130 1_555
Li9 O35 2.242009 1_555
Mn0 O10 1.838088 1_556
Mn0 O8 2.140617 1_555
Mn0 O3 2.302689 1_555
Mn0 O0 2.304022 1_655
Mn0 O1 2.483834 1_555
Mn1 O33 1.777983 1_545
Mn1 O9 1.885320 1_555
Mn1 O11 2.044027 1_555
Mn2 O34 1.735549 1_545
Mn2 O14 2.014847 1_555
Mn2 O7 2.143053 1_555
Mn3 O5 1.733088 1_555
Mn3 O17 1.904467 1_555
Mn3 O18 2.070148 1_555
Mn4 O6 1.614791 1_555
Mn4 O19 1.762358 1_555
Mn4 O15 2.204679 1_555
Mn5 O22 1.922640 1_555
Mn5 O26 2.110371 1_555
Mn5 O13 2.275685 1_555
Mn5 O8 2.343233 1_454
Mn5 O10 2.485744 1_455
Mn6 O29 1.591038 1_555
Mn6 O12 1.610682 1_554
Mn6 O25 2.151341 1_554
Mn7 O16 1.851684 1_455
Mn7 O31 1.986286 1_555
Mn7 O21 2.103015 1_455
Mn7 O19 2.405069 1_455
Mn8 O28 1.932857 1_555
Mn8 O30 2.078103 1_555
Mn8 O20 2.131715 1_555
Mn8 O26 2.317912 1_555
Mn8 O22 2.491016 1_555
Mn9 O2 1.818281 1_565
Mn9 O23 1.864478 1_555
Mn9 O32 2.109967 1_555
Mn10 O24 1.806177 1_555
Mn10 O4 1.983540 1_565
Mn10 O35 2.124789 1_556
Mn10 O31 2.462590 1_555
Mn11 O1 1.946524 1_565
Mn11 O3 2.057430 1_565
Mn11 O30 2.294311 1_555
Mn11 O27 2.332751 1_555
Mn11 O28 2.475736 1_555
B0 O4 1.404318 1_555
B0 O5 1.435617 1_555
B0 O1 1.487237 1_555
B1 O3 1.397845 1_555
B1 O6 1.439758 1_555
B1 O2 1.475224 1_555
B2 O11 1.364242 1_555
B2 O13 1.444181 1_555
B2 O7 1.504208 1_555
B3 O8 1.388216 1_455
B3 O16 1.474215 1_455
B3 O9 1.535235 1_555
B4 O14 1.409155 1_555
B4 O10 1.426760 1_555
B4 O12 1.457233 1_554
B5 O18 1.418822 1_555
B5 O20 1.434620 1_555
B5 O15 1.557302 1_555
B6 O19 1.426098 1_555
B6 O23 1.473348 1_555
B6 O22 1.542361 1_655
B7 O26 1.406154 1_556
B7 O24 1.440213 1_555
B7 O17 1.585507 1_555
B8 O27 1.374675 1_555
B8 O25 1.460767 1_555
B8 O21 1.515602 1_555
B9 O31 1.418241 1_555
B9 O33 1.446085 1_555
B9 O28 1.527799 1_555
B10 O30 1.385263 1_555
B10 O34 1.421633 1_555
B10 O29 1.501063 1_555
B11 O0 1.411909 1_565
B11 O32 1.450485 1_456
B11 O35 1.552191 1_556
