# generated using pymatgen
data_Mn12O5F19
_symmetry_space_group_name_H-M   'P 1'
_cell_length_a   4.84640200
_cell_length_b   5.87420310
_cell_length_c   16.00113817
_cell_angle_alpha   90.28247537
_cell_angle_beta   90.17530215
_cell_angle_gamma   91.34444032
_symmetry_Int_Tables_number   1
_chemical_formula_structural   Mn12O5F19
_chemical_formula_sum   'Mn12 O5 F19'
_cell_volume   455.39916234
_cell_formula_units_Z   1
loop_
 _symmetry_equiv_pos_site_id
 _symmetry_equiv_pos_as_xyz
  1  'x, y, z'
loop_
 _atom_site_type_symbol
 _atom_site_label
 _atom_site_symmetry_multiplicity
 _atom_site_fract_x
 _atom_site_fract_y
 _atom_site_fract_z
 _atom_site_occupancy
  Mn  Mn0  1  0.03341400  0.80807400  0.57662800  1
  Mn  Mn1  1  0.98307200  0.14442000  0.74716200  1
  Mn  Mn2  1  0.00956100  0.83028500  0.90638400  1
  Mn  Mn3  1  0.98383300  0.83930200  0.25431600  1
  Mn  Mn4  1  0.99651700  0.16123800  0.41874600  1
  Mn  Mn5  1  0.01454000  0.15611400  0.09141900  1
  Mn  Mn6  1  0.50578800  0.64805500  0.41229900  1
  Mn  Mn7  1  0.48729200  0.66939000  0.08306000  1
  Mn  Mn8  1  0.50286900  0.67368800  0.76171000  1
  Mn  Mn9  1  0.50074700  0.35121600  0.91600100  1
  Mn  Mn10  1  0.49105100  0.36407700  0.58302700  1
  Mn  Mn11  1  0.48537300  0.34105800  0.24820100  1
  O  O0  1  0.21865300  0.11069700  0.20034400  1
  O  O1  1  0.29298900  0.62537500  0.86274400  1
  O  O2  1  0.30630900  0.60302200  0.51888600  1
  O  O3  1  0.69976100  0.61108300  0.30417300  1
  O  O4  1  0.78679000  0.87500000  0.80625400  1
  F  F0  1  0.24055600  0.89504400  0.69018800  1
  F  F1  1  0.22311300  0.87922800  0.36396000  1
  F  F2  1  0.21947700  0.88442500  0.01849600  1
  F  F3  1  0.23829500  0.12146700  0.85645500  1
  F  F4  1  0.23945500  0.11187900  0.52865600  1
  F  F5  1  0.26811000  0.40441700  0.69770200  1
  F  F6  1  0.26693100  0.38348100  0.35804900  1
  F  F7  1  0.24016400  0.60754800  0.19218300  1
  F  F8  1  0.26868800  0.38227300  0.02879100  1
  F  F9  1  0.74540300  0.60951600  0.97711100  1
  F  F10  1  0.73831400  0.37938000  0.80627400  1
  F  F11  1  0.72628700  0.62741400  0.64924700  1
  F  F12  1  0.74359500  0.39442500  0.47500100  1
  F  F13  1  0.71342000  0.38461900  0.13975100  1
  F  F14  1  0.77174700  0.87891300  0.47105100  1
  F  F15  1  0.76042300  0.13261800  0.63161000  1
  F  F16  1  0.78091300  0.11201400  0.97463200  1
  F  F17  1  0.76908800  0.88919100  0.14080400  1
  F  F18  1  0.74746400  0.11005200  0.30868300  1
loop_
_geom_bond_atom_site_label_1
_geom_bond_atom_site_label_2
_geom_bond_distance
_geom_bond_site_symmetry_2
Mn0 O2 2.030996 1_555
Mn1 O4 2.062345 1_545
Mn2 O4 1.951540 1_455
Mn2 O1 1.974442 1_555
Mn3 O3 2.063902 1_555
Mn3 O0 2.125315 1_665
Mn5 O0 2.023344 1_555
Mn6 O2 1.978865 1_555
Mn6 O3 1.984971 1_555
Mn8 O4 1.925911 1_555
Mn8 O1 1.931266 1_555
Mn9 O1 2.101898 1_555
Mn10 O2 1.972980 1_555
Mn11 O0 1.997513 1_555
Mn11 O3 2.073790 1_555
F0 Mn0 2.127494 1_555
F0 Mn1 2.147963 1_465
F0 Mn8 2.167939 1_555
F0 O4 2.883434 1_455
F0 F4 2.887174 1_565
F0 F5 2.891338 1_555
F0 F11 2.935163 1_555
F0 F3 2.968702 1_565
F0 F11 2.984714 1_455
F0 F5 2.993813 1_565
F1 Mn6 2.100064 1_555
F1 Mn3 2.109156 1_455
F1 Mn4 2.189907 1_465
F1 F14 2.782857 1_455
F2 Mn2 2.079012 1_554
F2 Mn7 2.104544 1_555
F2 Mn5 2.226699 1_565
F2 F9 2.851512 1_454
F3 Mn9 2.060689 1_555
F3 Mn1 2.145552 1_455
F3 Mn2 2.173184 1_545
F4 Mn10 2.081932 1_555
F4 Mn4 2.138137 1_455
F4 Mn0 2.169275 1_545
F5 Mn10 2.147179 1_555
F5 Mn8 2.176653 1_555
F5 Mn1 2.187877 1_455
F6 Mn11 2.071664 1_555
F6 Mn4 2.074876 1_455
F6 Mn6 2.098834 1_555
F7 Mn3 2.111540 1_455
F7 Mn7 2.147995 1_555
F7 Mn11 2.181935 1_555
F7 O3 2.854101 1_555
F8 Mn5 2.056734 1_555
F8 Mn9 2.138718 1_554
F8 Mn7 2.148749 1_555
F9 Mn2 2.132359 1_655
F9 Mn9 2.134973 1_555
F9 Mn7 2.142493 1_556
F9 O1 2.855119 1_555
F10 Mn1 2.068209 1_555
F10 Mn9 2.107592 1_555
F10 Mn8 2.213386 1_555
F10 F5 2.868222 1_555
F10 F11 2.911812 1_555
F11 Mn8 2.122623 1_555
F11 Mn0 2.154197 1_655
F11 Mn10 2.170030 1_555
F11 F5 2.670540 1_555
F11 O4 2.907272 1_555
F11 O2 2.910632 1_555
F11 F15 2.927406 1_555
F11 F15 2.983218 1_565
F12 Mn4 2.064571 1_555
F12 Mn10 2.126823 1_555
F12 Mn6 2.154729 1_555
F12 F14 2.847073 1_555
F13 Mn11 2.073922 1_555
F13 Mn5 2.148980 1_655
F13 Mn7 2.217443 1_555
F13 F8 2.788014 1_555
F13 F9 2.927231 1_554
F13 F7 2.958849 1_655
F14 Mn6 2.069343 1_555
F14 Mn4 2.138222 1_565
F14 Mn0 2.157276 1_655
F15 Mn10 2.060275 1_555
F15 Mn1 2.137950 1_555
F15 Mn0 2.503566 1_645
F15 F4 2.855371 1_655
F16 Mn9 2.189260 1_555
F16 Mn5 2.193114 1_656
F16 Mn2 2.287999 1_645
F16 F2 2.632674 1_646
F16 F3 2.917759 1_655
F16 F9 2.931599 1_555
F16 F9 2.953223 1_545
F17 Mn7 2.069710 1_555
F17 Mn5 2.104385 1_665
F17 Mn3 2.115665 1_555
F18 Mn11 2.116057 1_555
F18 Mn4 2.147932 1_555
F18 Mn3 2.162521 1_545
F18 O0 2.871199 1_655
