# generated using pymatgen
data_MnAlIr2
_symmetry_space_group_name_H-M   'P 1'
_cell_length_a   4.26388629
_cell_length_b   4.26388629
_cell_length_c   4.26388629
_cell_angle_alpha   60.00000000
_cell_angle_beta   60.00000000
_cell_angle_gamma   60.00000000
_symmetry_Int_Tables_number   1
_chemical_formula_structural   MnAlIr2
_chemical_formula_sum   'Mn1 Al1 Ir2'
_cell_volume   54.81530630
_cell_formula_units_Z   1
loop_
 _symmetry_equiv_pos_site_id
 _symmetry_equiv_pos_as_xyz
  1  'x, y, z'
loop_
 _atom_site_type_symbol
 _atom_site_label
 _atom_site_symmetry_multiplicity
 _atom_site_fract_x
 _atom_site_fract_y
 _atom_site_fract_z
 _atom_site_occupancy
  Mn  Mn0  1  0.74999900  0.74999900  0.74999900  1
  Al  Al0  1  0.25000000  0.25000000  0.25000000  1
  Ir  Ir0  1  0.00000000  0.00000000  -0.00000000  1
  Ir  Ir1  1  0.50000000  0.50000000  0.50000000  1
loop_
_geom_bond_atom_site_label_1
_geom_bond_atom_site_label_2
_geom_bond_distance
_geom_bond_site_symmetry_2
Al0 Ir0 2.611086 1_555
Al0 Ir1 2.611086 1_555
Al0 Ir0 2.611086 1_556
Al0 Ir1 2.611086 1_554
Al0 Ir0 2.611086 1_655
Al0 Ir1 2.611086 1_455
Al0 Ir0 2.611086 1_565
Al0 Ir1 2.611086 1_545
Al0 Mn0 3.015017 1_455
Al0 Mn0 3.015017 1_554
Al0 Mn0 3.015017 1_545
Al0 Mn0 3.015029 1_454
Al0 Mn0 3.015029 1_445
Al0 Mn0 3.015029 1_544
Ir0 Mn0 2.611083 1_454
Ir0 Mn0 2.611083 1_544
Ir0 Mn0 2.611083 1_445
Ir0 Mn0 2.611097 1_444
Ir0 Ir1 3.015023 1_545
Ir0 Ir1 3.015023 1_544
Ir0 Ir1 3.015023 1_445
Ir0 Ir1 3.015023 1_554
Ir0 Ir1 3.015023 1_455
Ir0 Ir1 3.015023 1_454
Ir1 Mn0 2.611076 1_555
Ir1 Mn0 2.611090 1_455
Ir1 Mn0 2.611090 1_554
Ir1 Mn0 2.611090 1_545
