# generated using pymatgen
data_FeOF
_symmetry_space_group_name_H-M   'P 1'
_cell_length_a   5.68335200
_cell_length_b   5.69139865
_cell_length_c   7.67011857
_cell_angle_alpha   69.70758356
_cell_angle_beta   69.83302177
_cell_angle_gamma   69.40649662
_symmetry_Int_Tables_number   1
_chemical_formula_structural   FeOF
_chemical_formula_sum   'Fe6 O6 F6'
_cell_volume   210.70303081
_cell_formula_units_Z   6
loop_
 _symmetry_equiv_pos_site_id
 _symmetry_equiv_pos_as_xyz
  1  'x, y, z'
loop_
 _atom_site_type_symbol
 _atom_site_label
 _atom_site_symmetry_multiplicity
 _atom_site_fract_x
 _atom_site_fract_y
 _atom_site_fract_z
 _atom_site_occupancy
  Fe  Fe0  1  0.33112800  0.33710200  0.16746500  1
  Fe  Fe1  1  0.65958700  0.67243400  0.34697000  1
  Fe  Fe2  1  0.37589400  0.31891000  0.67033800  1
  Fe  Fe3  1  0.63499500  0.65465600  0.82451200  1
  Fe  Fe4  1  0.00381700  0.02484600  0.49161500  1
  Fe  Fe5  1  0.98842100  0.00011100  0.99812000  1
  O  O0  1  0.36033400  0.97426100  0.33384000  1
  O  O1  1  0.56570200  0.55927100  0.62752200  1
  O  O2  1  0.65662500  0.01276700  0.66783600  1
  O  O3  1  0.96698100  0.37385300  0.32908800  1
  O  O4  1  0.28818200  0.70185400  0.00104000  1
  O  O5  1  0.69370700  0.29999100  0.99812500  1
  F  F0  1  0.04379100  0.62309300  0.66727300  1
  F  F1  1  0.11132300  0.10760800  0.70132100  1
  F  F2  1  0.76200600  0.76939400  0.04429700  1
  F  F3  1  0.43175400  0.43382000  0.37516900  1
  F  F4  1  0.22694100  0.23164600  0.95875700  1
  F  F5  1  0.89881100  0.90438400  0.29671300  1
loop_
_geom_bond_atom_site_label_1
_geom_bond_atom_site_label_2
_geom_bond_distance
_geom_bond_site_symmetry_2
Fe0 O3 1.992484 1_455
Fe0 O0 1.999396 1_545
Fe0 O5 2.004144 1_554
Fe0 O4 2.004722 1_555
Fe1 O0 1.948454 1_555
Fe1 O1 1.954174 1_555
Fe1 O3 1.966385 1_555
Fe2 O1 1.903990 1_555
Fe2 O2 1.904815 1_555
Fe3 O4 1.957081 1_556
Fe3 O1 1.965288 1_555
Fe3 O5 1.981722 1_555
Fe3 O2 1.997204 1_565
Fe4 O3 1.926984 1_455
Fe4 O0 1.947685 1_545
Fe4 O2 1.979195 1_455
Fe5 O5 1.925468 1_555
Fe5 O4 1.936482 1_646
F0 Fe2 2.064918 1_555
F0 Fe4 2.191783 1_565
F0 Fe3 2.193013 1_455
F0 O2 2.515454 1_465
F0 F4 2.750228 1_555
F0 F1 2.751076 1_555
F0 F3 2.763831 1_555
F0 O1 2.778229 1_555
F1 Fe5 2.069479 1_455
F1 Fe4 2.141954 1_555
F1 Fe2 2.142699 1_555
F1 O4 2.811786 1_546
F2 Fe5 2.014283 1_564
F2 Fe1 2.106770 1_555
F2 Fe3 2.392399 1_554
F2 O3 2.774045 1_555
F2 O4 2.792182 1_655
F2 O5 2.814941 1_564
F2 O0 2.816184 1_555
F3 Fe2 2.068230 1_555
F3 Fe1 2.099503 1_555
F3 Fe0 2.150818 1_555
F3 O3 2.847187 1_555
F3 O0 2.874076 1_555
F4 Fe2 2.024741 1_555
F4 Fe5 2.088959 1_455
F4 Fe0 2.200792 1_556
F4 O4 2.824777 1_546
F4 O5 2.836897 1_455
F5 Fe1 2.070767 1_555
F5 Fe5 2.080116 1_564
F5 Fe4 2.162145 1_665
F5 O4 2.815539 1_655
F5 O3 2.837647 1_555
F5 O5 2.844486 1_564
F5 O0 2.868184 1_555
F5 O2 2.880456 1_565
F5 O0 2.906336 1_655
