# generated using pymatgen
data_AcAgAu2
_symmetry_space_group_name_H-M   'P 1'
_cell_length_a   5.16688842
_cell_length_b   5.16688842
_cell_length_c   5.16688842
_cell_angle_alpha   60.00000000
_cell_angle_beta   60.00000000
_cell_angle_gamma   60.00000000
_symmetry_Int_Tables_number   1
_chemical_formula_structural   AcAgAu2
_chemical_formula_sum   'Ac1 Ag1 Au2'
_cell_volume   97.53764180
_cell_formula_units_Z   1
loop_
 _symmetry_equiv_pos_site_id
 _symmetry_equiv_pos_as_xyz
  1  'x, y, z'
loop_
 _atom_site_type_symbol
 _atom_site_label
 _atom_site_symmetry_multiplicity
 _atom_site_fract_x
 _atom_site_fract_y
 _atom_site_fract_z
 _atom_site_occupancy
  Ac  Ac0  1  0.25000000  0.25000000  0.25000000  1
  Ag  Ag0  1  0.75000100  0.75000100  0.75000100  1
  Au  Au0  1  0.50000100  0.50000100  0.50000100  1
  Au  Au1  1  0.00000000  0.00000000  0.00000000  1
loop_
_geom_bond_atom_site_label_1
_geom_bond_atom_site_label_2
_geom_bond_distance
_geom_bond_site_symmetry_2
Ac0 Au0 3.164056 1_455
Ac0 Au0 3.164056 1_554
Ac0 Au0 3.164056 1_545
Ac0 Au1 3.164060 1_556
Ac0 Au1 3.164060 1_565
Ac0 Au1 3.164060 1_555
Ac0 Au1 3.164060 1_655
Ac0 Au0 3.164073 1_555
Ac0 Ag0 3.653535 1_544
Ac0 Ag0 3.653535 1_445
Ac0 Ag0 3.653535 1_454
Ac0 Ag0 3.653549 1_545
Ac0 Ag0 3.653549 1_554
Ac0 Ag0 3.653549 1_455
Ag0 Au1 3.164047 1_666
Ag0 Au0 3.164060 1_555
Ag0 Au0 3.164060 1_655
Ag0 Au0 3.164060 1_556
Ag0 Au0 3.164060 1_565
Ag0 Au1 3.164064 1_665
Ag0 Au1 3.164064 1_566
Ag0 Au1 3.164064 1_656
Au0 Au1 3.653535 1_656
Au0 Au1 3.653535 1_665
Au0 Au1 3.653535 1_566
Au0 Au1 3.653549 1_556
Au0 Au1 3.653549 1_655
Au0 Au1 3.653549 1_565
