# generated using pymatgen
data_Li3Fe4(BO3)4
_symmetry_space_group_name_H-M   'P 1'
_cell_length_a   5.25652300
_cell_length_b   9.09491841
_cell_length_c   10.20398906
_cell_angle_alpha   89.97701240
_cell_angle_beta   88.50728122
_cell_angle_gamma   89.62537596
_symmetry_Int_Tables_number   1
_chemical_formula_structural   Li3Fe4(BO3)4
_chemical_formula_sum   'Li6 Fe8 B8 O24'
_cell_volume   487.65273031
_cell_formula_units_Z   2
loop_
 _symmetry_equiv_pos_site_id
 _symmetry_equiv_pos_as_xyz
  1  'x, y, z'
loop_
 _atom_site_type_symbol
 _atom_site_label
 _atom_site_symmetry_multiplicity
 _atom_site_fract_x
 _atom_site_fract_y
 _atom_site_fract_z
 _atom_site_occupancy
  Li  Li0  1  0.65358800  0.99110700  0.91903700  1
  Li  Li1  1  0.16373700  0.49943600  0.90311600  1
  Li  Li2  1  0.83486900  0.50871100  0.66064600  1
  Li  Li3  1  0.84588600  0.48590900  0.16860400  1
  Li  Li4  1  0.33252600  0.01144800  0.65662500  1
  Li  Li5  1  0.65585900  0.00215900  0.40817300  1
  Fe  Fe0  1  0.16335500  0.83784200  0.88032700  1
  Fe  Fe1  1  0.83791700  0.83997500  0.63068500  1
  Fe  Fe2  1  0.34186700  0.67257200  0.13716400  1
  Fe  Fe3  1  0.65995500  0.65748300  0.38691700  1
  Fe  Fe4  1  0.33092700  0.34312200  0.62780600  1
  Fe  Fe5  1  0.16292300  0.17069900  0.37457700  1
  Fe  Fe6  1  0.65817900  0.33422700  0.88112500  1
  Fe  Fe7  1  0.84178000  0.15260100  0.12903900  1
  B  B0  1  0.15801300  0.84237900  0.37445600  1
  B  B1  1  0.33392000  0.66930100  0.63194700  1
  B  B2  1  0.83137900  0.82219400  0.12526800  1
  B  B3  1  0.66626000  0.66766000  0.87937800  1
  B  B4  1  0.34003600  0.34242000  0.13263400  1
  B  B5  1  0.66365100  0.32312000  0.37488300  1
  B  B6  1  0.16212500  0.16626200  0.87712500  1
  B  B7  1  0.82822100  0.17042100  0.62296300  1
  O  O0  1  0.29130200  0.97339200  0.38332200  1
  O  O1  1  0.08788600  0.81294700  0.08839500  1
  O  O2  1  0.70182800  0.95178300  0.11740900  1
  O  O3  1  0.22068100  0.80543100  0.66350000  1
  O  O4  1  0.28907800  0.71724900  0.32950500  1
  O  O5  1  0.77695000  0.80210200  0.84534500  1
  O  O6  1  0.90101500  0.83694000  0.41142400  1
  O  O7  1  0.41330000  0.66538300  0.92798600  1
  O  O8  1  0.19158800  0.54406400  0.63944000  1
  O  O9  1  0.59381800  0.66280700  0.59568600  1
  O  O10  1  0.70884200  0.69020500  0.16284300  1
  O  O11  1  0.20634300  0.47513400  0.11775500  1
  O  O12  1  0.80357000  0.53827100  0.86447700  1
  O  O13  1  0.27468000  0.30210100  0.85026900  1
  O  O14  1  0.41389700  0.31138500  0.42158800  1
  O  O15  1  0.77970900  0.45341900  0.35670600  1
  O  O16  1  0.59846000  0.33527400  0.09829700  1
  O  O17  1  0.08775000  0.16744600  0.58450000  1
  O  O18  1  0.20682300  0.22060900  0.17969400  1
  O  O19  1  0.71563300  0.30134000  0.66546900  1
  O  O20  1  0.79519600  0.18867600  0.34680300  1
  O  O21  1  0.30693800  0.03913500  0.85947700  1
  O  O22  1  0.90656300  0.15870200  0.91725300  1
  O  O23  1  0.68700000  0.04268100  0.61340900  1
loop_
_geom_bond_atom_site_label_1
_geom_bond_atom_site_label_2
_geom_bond_distance
_geom_bond_site_symmetry_2
Li0 O5 1.975321 1_555
Li0 O21 1.981806 1_565
Li0 O22 2.029092 1_565
Li0 O2 2.077141 1_556
Li1 O13 1.955173 1_555
Li1 O12 1.973459 1_455
Li1 O7 2.026514 1_555
Li1 O11 2.218196 1_556
Li1 O8 2.721139 1_555
Li2 O8 1.911256 1_655
Li2 O19 1.991511 1_555
Li2 O9 2.007201 1_555
Li2 O12 2.099364 1_555
Li3 O11 1.953278 1_655
Li3 O15 1.964303 1_555
Li3 O10 1.989819 1_555
Li3 O16 2.038597 1_555
Li4 O23 1.926409 1_555
Li4 O3 1.968120 1_545
Li4 O17 2.057851 1_555
Li4 O21 2.086014 1_555
Li5 O20 1.948776 1_555
Li5 O0 1.958800 1_545
Li5 O6 1.973980 1_545
Li5 O23 2.137211 1_555
Fe0 O21 1.993971 1_565
Fe0 O5 2.098841 1_455
Fe0 O7 2.104424 1_555
Fe0 O1 2.161759 1_556
Fe0 O3 2.244433 1_555
Fe1 O23 2.011750 1_565
Fe1 O3 2.070206 1_655
Fe1 O9 2.102777 1_555
Fe1 O5 2.232357 1_555
Fe1 O6 2.253379 1_555
Fe2 O1 1.916193 1_555
Fe2 O11 1.948219 1_555
Fe2 O10 1.961092 1_555
Fe2 O4 2.016153 1_555
Fe2 O7 2.158513 1_554
Fe3 O15 1.977598 1_555
Fe3 O6 2.091879 1_555
Fe3 O4 2.117710 1_555
Fe3 O9 2.150014 1_555
Fe3 O10 2.313503 1_555
Fe4 O8 1.966886 1_555
Fe4 O19 2.100424 1_555
Fe4 O17 2.106839 1_555
Fe4 O14 2.156944 1_555
Fe4 O13 2.312001 1_555
Fe5 O14 1.913965 1_555
Fe5 O0 1.915914 1_545
Fe5 O20 1.966667 1_455
Fe5 O18 2.047072 1_555
Fe5 O17 2.168273 1_555
Fe6 O12 2.017009 1_555
Fe6 O13 2.071011 1_555
Fe6 O22 2.094370 1_555
Fe6 O16 2.230048 1_556
Fe6 O19 2.233343 1_555
Fe7 O2 1.978230 1_545
Fe7 O18 2.097429 1_655
Fe7 O16 2.118306 1_555
Fe7 O22 2.179688 1_554
Fe7 O20 2.253076 1_555
B0 O0 1.390388 1_555
B0 O6 1.394283 1_455
B0 O4 1.397815 1_555
B1 O8 1.367870 1_555
B1 O3 1.404117 1_555
B1 O9 1.406916 1_555
B2 O2 1.360717 1_555
B2 O1 1.392393 1_655
B2 O10 1.414143 1_555
B3 O12 1.382827 1_555
B3 O5 1.397379 1_555
B3 O7 1.407305 1_555
B4 O18 1.393011 1_555
B4 O16 1.395111 1_555
B4 O11 1.402907 1_555
B5 O15 1.346968 1_555
B5 O14 1.389696 1_555
B5 O20 1.426277 1_555
B6 O21 1.389320 1_555
B6 O22 1.396264 1_455
B6 O13 1.397250 1_555
B7 O23 1.387603 1_555
B7 O19 1.390670 1_555
B7 O17 1.409786 1_655
