# generated using pymatgen
data_Li3VO3F
_symmetry_space_group_name_H-M   'P 1'
_cell_length_a   7.20149900
_cell_length_b   7.21304779
_cell_length_c   7.22962866
_cell_angle_alpha   109.84133293
_cell_angle_beta   108.95361444
_cell_angle_gamma   109.44338396
_symmetry_Int_Tables_number   1
_chemical_formula_structural   Li3VO3F
_chemical_formula_sum   'Li12 V4 O12 F4'
_cell_volume   289.70258903
_cell_formula_units_Z   4
loop_
 _symmetry_equiv_pos_site_id
 _symmetry_equiv_pos_as_xyz
  1  'x, y, z'
loop_
 _atom_site_type_symbol
 _atom_site_label
 _atom_site_symmetry_multiplicity
 _atom_site_fract_x
 _atom_site_fract_y
 _atom_site_fract_z
 _atom_site_occupancy
  Li  Li0  1  0.22506100  0.72438800  0.25989500  1
  Li  Li1  1  0.76121600  0.76814600  0.74801700  1
  Li  Li2  1  0.48378500  0.74859900  0.00466200  1
  Li  Li3  1  0.53551800  0.02119400  0.73040500  1
  Li  Li4  1  0.50315200  0.23263200  0.50367400  1
  Li  Li5  1  0.01437500  0.51558300  0.74054500  1
  Li  Li6  1  0.73704500  0.21848700  0.27008700  1
  Li  Li7  1  0.75358300  0.01471000  0.49399200  1
  Li  Li8  1  0.24526900  0.49751100  0.50324500  1
  Li  Li9  1  0.76715300  0.50943300  0.99747100  1
  Li  Li10  1  0.00582800  0.01028500  0.25174700  1
  Li  Li11  1  0.01635700  0.75266100  0.49389700  1
  V  V0  1  0.46302800  0.48239000  0.25889200  1
  V  V1  1  0.98041000  0.25664200  0.00016400  1
  V  V2  1  0.24439400  0.97729100  0.99962700  1
  V  V3  1  0.23854800  0.25949600  0.74052700  1
  O  O0  1  0.03797800  0.26937300  0.48618900  1
  O  O1  1  0.00409400  0.52488200  0.23740400  1
  O  O2  1  0.43970900  0.44664200  0.77580100  1
  O  O3  1  0.75293600  0.99727100  0.00157000  1
  O  O4  1  0.77959300  0.77487600  0.22188100  1
  O  O5  1  0.24233800  0.72157400  0.76350400  1
  O  O6  1  0.28379300  0.27157500  0.24674900  1
  O  O7  1  0.70667000  0.23724200  0.76846300  1
  O  O8  1  0.54213700  0.01268900  0.23420000  1
  O  O9  1  0.02055500  0.01212600  0.75385300  1
  O  O10  1  0.49329600  0.72459100  0.51325300  1
  O  O11  1  0.99862600  0.76930200  0.99791400  1
  F  F0  1  0.25303600  0.49685500  0.99707600  1
  F  F1  1  0.48048300  0.24300000  0.00367600  1
  F  F2  1  0.23819800  0.99844500  0.50385700  1
  F  F3  1  0.75183800  0.51011100  0.49776200  1
loop_
_geom_bond_atom_site_label_1
_geom_bond_atom_site_label_2
_geom_bond_distance
_geom_bond_site_symmetry_2
Li0 O1 1.666749 1_555
Li0 O10 2.187313 1_555
Li0 O11 2.261258 1_454
Li1 O10 1.951734 1_555
Li1 O11 2.039838 1_555
Li1 O3 2.043339 1_556
Li1 O9 2.072950 1_665
Li2 O8 1.851288 1_565
Li2 O5 1.917140 1_554
Li2 O2 2.081935 1_554
Li2 O4 2.096685 1_555
Li2 O3 2.171528 1_555
Li3 O7 1.494413 1_555
Li3 O10 2.027567 1_545
Li3 O3 2.177179 1_546
Li4 O7 1.978782 1_555
Li4 O6 2.183595 1_555
Li4 O8 2.223709 1_555
Li4 O2 2.335394 1_555
Li5 O5 1.721036 1_555
Li5 O0 2.179786 1_555
Li5 O11 2.188132 1_455
Li6 O8 1.534882 1_555
Li6 O0 2.038120 1_655
Li6 O3 2.119167 1_545
Li7 O8 1.988799 1_555
Li7 O9 2.219798 1_655
Li7 O4 2.245606 1_545
Li7 O0 2.283144 1_655
Li7 O7 2.294013 1_555
Li7 O10 2.380767 1_545
Li8 O0 1.748951 1_555
Li8 O10 1.940702 1_555
Li8 O5 2.033964 1_555
Li8 O6 2.180659 1_555
Li8 O2 2.240228 1_555
Li8 O1 2.250954 1_555
Li9 O7 1.881793 1_555
Li9 O1 1.937105 1_656
Li9 O4 1.997201 1_556
Li9 O11 2.050497 1_555
Li9 O2 2.162259 1_555
Li10 O4 1.806958 1_445
Li10 O0 1.930199 1_555
Li10 O11 2.025968 1_444
Li10 O3 2.056229 1_445
Li10 O6 2.267593 1_555
Li11 O1 1.968412 1_555
Li11 O9 2.138547 1_565
Li11 O5 2.230915 1_555
Li11 O4 2.240069 1_455
O0 V3 1.976002 1_555
O1 V1 2.012945 1_455
O2 V3 1.486705 1_555
O3 V1 2.041352 1_565
O5 V2 2.035798 1_555
O6 V0 1.585912 1_555
O6 V2 2.115083 1_544
O6 V1 2.268462 1_455
O7 V1 2.055201 1_556
O8 V2 2.125604 1_544
O9 V3 2.001896 1_555
O9 V2 2.128594 1_545
O9 V1 2.215208 1_456
O10 V0 1.945888 1_555
O11 V2 1.894414 1_655
F0 Li2 1.981410 1_556
F0 V3 1.995485 1_555
F0 V0 2.064042 1_556
F0 V1 2.155747 1_456
F0 Li5 2.160056 1_555
F0 Li0 2.167109 1_556
F1 V2 2.079657 1_544
F1 V0 2.129378 1_555
F1 V3 2.192624 1_554
F1 Li6 2.300357 1_555
F1 Li3 2.324878 1_554
F1 Li9 2.331228 1_554
F2 Li11 1.911411 1_555
F2 V3 2.068862 1_565
F2 Li10 2.085467 1_565
F2 Li4 2.086023 1_565
F2 Li0 2.104226 1_555
F2 Li3 2.144663 1_565
F3 Li1 2.071983 1_555
F3 Li5 2.098698 1_655
F3 V0 2.122173 1_555
F3 Li6 2.128830 1_555
F3 Li11 2.130584 1_655
F3 Li4 2.221827 1_555
