# generated using pymatgen
data_Sr2MnZn2(AsO)2
_symmetry_space_group_name_H-M   'P 1'
_cell_length_a   4.19946301
_cell_length_b   4.19946301
_cell_length_c   9.89006274
_cell_angle_alpha   102.26041709
_cell_angle_beta   102.26041709
_cell_angle_gamma   90.00671257
_symmetry_Int_Tables_number   1
_chemical_formula_structural   Sr2MnZn2(AsO)2
_chemical_formula_sum   'Sr2 Mn1 Zn2 As2 O2'
_cell_volume   166.36405396
_cell_formula_units_Z   1
loop_
 _symmetry_equiv_pos_site_id
 _symmetry_equiv_pos_as_xyz
  1  'x, y, z'
loop_
 _atom_site_type_symbol
 _atom_site_label
 _atom_site_symmetry_multiplicity
 _atom_site_fract_x
 _atom_site_fract_y
 _atom_site_fract_z
 _atom_site_occupancy
  Sr  Sr0  1  0.58652300  0.58652200  0.17304300  1
  Sr  Sr1  1  0.41347900  0.41347800  0.82695600  1
  Mn  Mn0  1  0.99999500  0.00000100  0.00000400  1
  Zn  Zn0  1  0.74999300  0.25000800  0.49999900  1
  Zn  Zn1  1  0.25000800  0.74999200  0.49999900  1
  As  As0  1  0.16862700  0.16862600  0.33743500  1
  As  As1  1  0.83137400  0.83137300  0.66256400  1
  O  O0  1  0.50000200  0.00000000  0.00000000  1
  O  O1  1  0.00000000  0.50000000  0.00000000  1
loop_
_geom_bond_atom_site_label_1
_geom_bond_atom_site_label_2
_geom_bond_distance
_geom_bond_site_symmetry_2
Mn0 O0 2.099694 1_555
Mn0 O1 2.099727 1_645
Mn0 O1 2.099736 1_655
Mn0 O0 2.099769 1_655
Zn0 Zn1 2.969292 1_655
Zn0 Zn1 2.969298 1_545
Zn0 Zn1 2.969551 1_555
Zn0 Zn1 2.969735 1_645
As0 Zn1 2.599931 1_545
As0 Zn0 2.599931 1_455
As0 Zn1 2.600311 1_555
As0 Zn0 2.600311 1_555
As0 Mn0 3.183149 1_455
As0 Sr0 3.349241 1_445
As0 Sr0 3.350183 1_545
As0 Sr0 3.350183 1_455
As0 Sr0 3.350507 1_555
As1 Zn1 2.599939 1_655
As1 Zn0 2.599942 1_565
As1 Zn0 2.600312 1_555
As1 Zn1 2.600315 1_555
As1 Mn0 3.183234 1_566
As1 Sr1 3.349246 1_665
As1 Sr1 3.350183 1_655
As1 Sr1 3.350183 1_565
As1 Sr1 3.350502 1_555
O0 Sr0 2.659526 1_555
O0 Sr1 2.659530 1_544
O0 Sr0 2.659720 1_545
O0 Sr1 2.659728 1_554
O1 Sr1 2.659527 1_454
O1 Sr0 2.659529 1_555
O1 Sr0 2.659717 1_455
O1 Sr1 2.659731 1_554
