# generated using pymatgen
data_Li5Mn6(BO3)6
_symmetry_space_group_name_H-M   'P 1'
_cell_length_a   8.82749934
_cell_length_b   8.82749934
_cell_length_c   14.38452104
_cell_angle_alpha   89.44451561
_cell_angle_beta   89.44451561
_cell_angle_gamma   42.26909727
_symmetry_Int_Tables_number   1
_chemical_formula_structural   Li5Mn6(BO3)6
_chemical_formula_sum   'Li10 Mn12 B12 O36'
_cell_volume   753.89854896
_cell_formula_units_Z   2
loop_
 _symmetry_equiv_pos_site_id
 _symmetry_equiv_pos_as_xyz
  1  'x, y, z'
loop_
 _atom_site_type_symbol
 _atom_site_label
 _atom_site_symmetry_multiplicity
 _atom_site_fract_x
 _atom_site_fract_y
 _atom_site_fract_z
 _atom_site_occupancy
  Li  Li0  1  0.89543400  0.89543400  0.00994100  1
  Li  Li1  1  0.92118300  0.92118300  0.64159300  1
  Li  Li2  1  0.68495800  0.68495800  0.85140800  1
  Li  Li3  1  0.67032800  0.67032800  0.14193800  1
  Li  Li4  1  0.64478900  0.64478900  0.50827000  1
  Li  Li5  1  0.43524800  0.43524800  0.35060500  1
  Li  Li6  1  0.41963600  0.41963600  0.64111800  1
  Li  Li7  1  0.39600100  0.39600100  0.00931400  1
  Li  Li8  1  0.17045700  0.17045700  0.14100000  1
  Li  Li9  1  0.14700300  0.14700300  0.51164600  1
  Mn  Mn0  1  0.82457500  0.31882100  0.98932800  1
  Mn  Mn1  1  0.84094300  0.33670800  0.69030300  1
  Mn  Mn2  1  0.57599800  0.06763400  0.48919100  1
  Mn  Mn3  1  0.59030800  0.08709700  0.19045700  1
  Mn  Mn4  1  0.84334600  0.33837300  0.31949500  1
  Mn  Mn5  1  0.58833600  0.09288900  0.81931400  1
  Mn  Mn6  1  0.09288900  0.58833600  0.81931400  1
  Mn  Mn7  1  0.33837300  0.84334600  0.31949500  1
  Mn  Mn8  1  0.08709700  0.59030800  0.19045700  1
  Mn  Mn9  1  0.06763400  0.57599800  0.48919100  1
  Mn  Mn10  1  0.33670800  0.84094300  0.69030300  1
  Mn  Mn11  1  0.31882100  0.82457500  0.98932800  1
  B  B0  1  0.99714400  0.50610900  0.00374700  1
  B  B1  1  0.75019600  0.75019600  0.66498700  1
  B  B2  1  0.00014100  0.00014100  0.16269500  1
  B  B3  1  0.99603500  0.99603500  0.83366200  1
  B  B4  1  0.50610900  0.99714400  0.00374700  1
  B  B5  1  0.74692900  0.25648300  0.50357000  1
  B  B6  1  0.49894800  0.49894800  0.83250500  1
  B  B7  1  0.24922500  0.24922500  0.33234500  1
  B  B8  1  0.74585000  0.74585000  0.33375400  1
  B  B9  1  0.50079700  0.50079700  0.16366300  1
  B  B10  1  0.25101300  0.25101300  0.66046200  1
  B  B11  1  0.25648300  0.74692900  0.50357000  1
  O  O0  1  0.91806300  0.91806300  0.87208700  1
  O  O1  1  0.75680200  0.75680200  0.23710600  1
  O  O2  1  0.81917900  0.81917900  0.71926800  1
  O  O3  1  0.81278800  0.81278800  0.39022900  1
  O  O4  1  0.75602600  0.75602600  0.56905200  1
  O  O5  1  0.92168800  0.92168800  0.19690500  1
  O  O6  1  0.82825900  0.32792900  0.54491100  1
  O  O7  1  0.68261400  0.18143400  0.55998200  1
  O  O8  1  0.93085400  0.43294400  0.06018700  1
  O  O9  1  0.57535100  0.08067000  0.04510100  1
  O  O10  1  0.97572500  0.51296800  0.90911600  1
  O  O11  1  0.72584300  0.26300800  0.40888300  1
  O  O12  1  0.56911700  0.56911700  0.21902600  1
  O  O13  1  0.56809800  0.56809800  0.88754100  1
  O  O14  1  0.50765100  0.50765100  0.06761700  1
  O  O15  1  0.67434700  0.67434700  0.70918200  1
  O  O16  1  0.50840100  0.50840100  0.73578900  1
  O  O17  1  0.42467800  0.42467800  0.20722500  1
  O  O18  1  0.42190100  0.42190100  0.87223700  1
  O  O19  1  0.31689000  0.31689000  0.71992600  1
  O  O20  1  0.31880900  0.31880900  0.38627000  1
  O  O21  1  0.25813900  0.25813900  0.23549900  1
  O  O22  1  0.26374600  0.26374600  0.56477200  1
  O  O23  1  0.66776200  0.66776200  0.37177200  1
  O  O24  1  0.26300800  0.72584300  0.40888300  1
  O  O25  1  0.51296800  0.97572500  0.90911600  1
  O  O26  1  0.08067000  0.57535100  0.04510100  1
  O  O27  1  0.43294400  0.93085400  0.06018700  1
  O  O28  1  0.18143400  0.68261400  0.55998200  1
  O  O29  1  0.32792900  0.82825900  0.54491100  1
  O  O30  1  0.06694100  0.06694100  0.22084800  1
  O  O31  1  0.17237600  0.17237600  0.37273200  1
  O  O32  1  0.06327700  0.06327700  0.88943200  1
  O  O33  1  0.00679900  0.00679900  0.73687500  1
  O  O34  1  0.01161500  0.01161500  0.06698700  1
  O  O35  1  0.17206800  0.17206800  0.69350600  1
loop_
_geom_bond_atom_site_label_1
_geom_bond_atom_site_label_2
_geom_bond_distance
_geom_bond_site_symmetry_2
Li0 O0 2.013864 1_554
Li0 O9 2.015851 1_565
Li0 O26 2.015851 1_655
Li0 O34 2.089580 1_665
Li0 O5 2.728350 1_555
Li1 O33 1.976469 1_665
Li1 O28 1.981492 1_655
Li1 O7 1.981492 1_565
Li1 O2 2.007718 1_555
Li2 O25 1.957489 1_555
Li2 O10 1.957489 1_555
Li2 O13 1.988120 1_555
Li2 O15 2.055110 1_555
Li3 O8 1.981411 1_555
Li3 O27 1.981411 1_555
Li3 O1 1.985531 1_555
Li3 O12 1.992243 1_555
Li4 O23 1.995706 1_555
Li4 O6 2.001993 1_555
Li4 O29 2.001993 1_555
Li4 O4 2.037937 1_555
Li5 O11 1.959463 1_555
Li5 O24 1.959463 1_555
Li5 O20 1.979741 1_555
Li5 O17 2.071587 1_555
Li6 O7 1.985793 1_555
Li6 O28 1.985793 1_555
Li6 O16 2.008118 1_555
Li6 O19 2.026810 1_555
Li7 O9 1.996398 1_555
Li7 O26 1.996398 1_555
Li7 O18 2.013050 1_554
Li7 O14 2.028750 1_555
Li8 O27 1.983957 1_545
Li8 O8 1.983957 1_455
Li8 O21 1.993340 1_555
Li8 O30 2.045566 1_555
Li9 O29 2.008636 1_545
Li9 O6 2.008636 1_455
Li9 O31 2.037173 1_555
Li9 O22 2.076146 1_555
Li9 O35 2.652566 1_555
Mn0 O8 2.090751 1_556
Mn0 O32 2.136088 1_655
Mn0 O34 2.162986 1_656
Mn0 O13 2.177226 1_555
Mn0 O14 2.224216 1_556
Mn1 O35 2.091028 1_655
Mn1 O6 2.100714 1_555
Mn1 O15 2.154244 1_555
Mn1 O16 2.177105 1_555
Mn1 O33 2.178174 1_655
Mn2 O7 2.090342 1_555
Mn2 O3 2.121675 1_545
Mn2 O22 2.166306 1_555
Mn2 O20 2.194041 1_555
Mn2 O4 2.217232 1_545
Mn3 O5 2.092585 1_545
Mn3 O9 2.100275 1_555
Mn3 O17 2.152906 1_555
Mn3 O21 2.174220 1_555
Mn3 O1 2.179592 1_545
Mn4 O11 2.037314 1_555
Mn4 O30 2.159346 1_655
Mn4 O23 2.184549 1_555
Mn4 O12 2.193352 1_555
Mn4 O31 2.211841 1_655
Mn5 O25 2.038825 1_545
Mn5 O19 2.166751 1_555
Mn5 O2 2.187494 1_545
Mn5 O0 2.191348 1_545
Mn5 O18 2.208916 1_555
Mn6 O10 2.038825 1_455
Mn6 O19 2.166751 1_555
Mn6 O2 2.187494 1_455
Mn6 O0 2.191348 1_455
Mn6 O18 2.208916 1_555
Mn7 O24 2.037314 1_555
Mn7 O30 2.159346 1_565
Mn7 O23 2.184549 1_555
Mn7 O12 2.193352 1_555
Mn7 O31 2.211841 1_565
Mn8 O5 2.092585 1_455
Mn8 O26 2.100275 1_555
Mn8 O17 2.152906 1_555
Mn8 O21 2.174220 1_555
Mn8 O1 2.179592 1_455
Mn9 O28 2.090342 1_555
Mn9 O3 2.121675 1_455
Mn9 O22 2.166306 1_555
Mn9 O20 2.194041 1_555
Mn9 O4 2.217232 1_455
Mn10 O35 2.091028 1_565
Mn10 O29 2.100714 1_555
Mn10 O15 2.154244 1_555
Mn10 O16 2.177105 1_555
Mn10 O33 2.178174 1_565
Mn11 O27 2.090751 1_556
Mn11 O32 2.136088 1_565
Mn11 O34 2.162986 1_566
Mn11 O13 2.177226 1_555
Mn11 O14 2.224216 1_556
B0 O10 1.370689 1_554
B0 O26 1.397735 1_655
B0 O8 1.399523 1_555
B1 O4 1.382319 1_555
B1 O2 1.385112 1_555
B1 O15 1.395614 1_555
B2 O5 1.377680 1_445
B2 O34 1.387672 1_555
B2 O30 1.388857 1_555
B3 O32 1.374101 1_665
B3 O0 1.392627 1_555
B3 O33 1.401644 1_665
B4 O25 1.370689 1_554
B4 O9 1.397735 1_565
B4 O27 1.399523 1_555
B5 O11 1.371353 1_555
B5 O6 1.397328 1_555
B5 O7 1.398928 1_555
B6 O18 1.386124 1_555
B6 O13 1.393618 1_555
B6 O16 1.398286 1_555
B7 O31 1.386985 1_555
B7 O20 1.390391 1_555
B7 O21 1.399278 1_555
B8 O3 1.376087 1_555
B8 O23 1.392126 1_555
B8 O1 1.400024 1_555
B9 O14 1.385009 1_555
B9 O12 1.385129 1_555
B9 O17 1.395547 1_555
B10 O35 1.379546 1_555
B10 O19 1.388446 1_555
B10 O22 1.390178 1_555
B11 O24 1.371353 1_555
B11 O29 1.397328 1_555
B11 O28 1.398928 1_555
