# generated using pymatgen
data_Gd2Mg
_symmetry_space_group_name_H-M   'P 1'
_cell_length_a   7.44094040
_cell_length_b   17.87581966
_cell_length_c   11.00005630
_cell_angle_alpha   90.00000000
_cell_angle_beta   90.00000000
_cell_angle_gamma   77.98728756
_symmetry_Int_Tables_number   1
_chemical_formula_structural   Gd2Mg
_chemical_formula_sum   'Gd32 Mg16'
_cell_volume   1431.10862723
_cell_formula_units_Z   16
loop_
 _symmetry_equiv_pos_site_id
 _symmetry_equiv_pos_as_xyz
  1  'x, y, z'
loop_
 _atom_site_type_symbol
 _atom_site_label
 _atom_site_symmetry_multiplicity
 _atom_site_fract_x
 _atom_site_fract_y
 _atom_site_fract_z
 _atom_site_occupancy
  Gd  Gd0_0  1  0.48875058  0.02250084  0.00000000  1
  Gd  Gd0_1  1  0.48875058  0.02250084  0.50000000  1
  Gd  Gd0_2  1  0.48875058  0.52250084  0.00000000  1
  Gd  Gd0_3  1  0.48875058  0.52250084  0.50000000  1
  Gd  Gd0_4  1  0.98875058  0.02250084  0.00000000  1
  Gd  Gd0_5  1  0.98875058  0.02250084  0.50000000  1
  Gd  Gd0_6  1  0.98875058  0.52250084  0.00000000  1
  Gd  Gd0_7  1  0.98875058  0.52250084  0.50000000  1
  Gd  Gd1_0  1  0.33059284  0.33881582  0.00000000  1
  Gd  Gd1_1  1  0.33059284  0.33881582  0.50000000  1
  Gd  Gd1_2  1  0.33059284  0.83881582  0.00000000  1
  Gd  Gd1_3  1  0.33059284  0.83881582  0.50000000  1
  Gd  Gd1_4  1  0.83059284  0.33881582  0.00000000  1
  Gd  Gd1_5  1  0.83059284  0.33881582  0.50000000  1
  Gd  Gd1_6  1  0.83059284  0.83881582  0.00000000  1
  Gd  Gd1_7  1  0.83059284  0.83881582  0.50000000  1
  Gd  Gd2_0  1  0.40013942  0.19972116  0.25000000  1
  Gd  Gd2_1  1  0.40013942  0.19972116  0.75000000  1
  Gd  Gd2_2  1  0.40013942  0.69972116  0.25000000  1
  Gd  Gd2_3  1  0.40013942  0.69972116  0.75000000  1
  Gd  Gd2_4  1  0.90013942  0.19972116  0.25000000  1
  Gd  Gd2_5  1  0.90013942  0.19972116  0.75000000  1
  Gd  Gd2_6  1  0.90013942  0.69972116  0.25000000  1
  Gd  Gd2_7  1  0.90013942  0.69972116  0.75000000  1
  Gd  Gd3_0  1  0.05829616  0.38340718  0.25000000  1
  Gd  Gd3_1  1  0.05829616  0.38340718  0.75000000  1
  Gd  Gd3_2  1  0.05829616  0.88340718  0.25000000  1
  Gd  Gd3_3  1  0.05829616  0.88340718  0.75000000  1
  Gd  Gd3_4  1  0.55829616  0.38340718  0.25000000  1
  Gd  Gd3_5  1  0.55829616  0.38340718  0.75000000  1
  Gd  Gd3_6  1  0.55829616  0.88340719  0.25000000  1
  Gd  Gd3_7  1  0.55829616  0.88340719  0.75000000  1
  Mg  Mg0_0  1  0.15994851  0.18010248  0.00000000  1
  Mg  Mg0_1  1  0.15994851  0.18010248  0.50000000  1
  Mg  Mg0_2  1  0.15994851  0.68010247  0.00000000  1
  Mg  Mg0_3  1  0.15994851  0.68010247  0.50000000  1
  Mg  Mg0_4  1  0.65994851  0.18010248  0.00000000  1
  Mg  Mg0_5  1  0.65994851  0.18010248  0.50000000  1
  Mg  Mg0_6  1  0.65994851  0.68010248  0.00000000  1
  Mg  Mg0_7  1  0.65994851  0.68010248  0.50000000  1
  Mg  Mg1_0  1  0.22893999  0.04211952  0.25000000  1
  Mg  Mg1_1  1  0.22893999  0.04211952  0.75000000  1
  Mg  Mg1_2  1  0.22893999  0.54211952  0.25000000  1
  Mg  Mg1_3  1  0.22893999  0.54211952  0.75000000  1
  Mg  Mg1_4  1  0.72893998  0.04211953  0.25000000  1
  Mg  Mg1_5  1  0.72893998  0.04211953  0.75000000  1
  Mg  Mg1_6  1  0.72893998  0.54211953  0.25000000  1
  Mg  Mg1_7  1  0.72893998  0.54211953  0.75000000  1
loop_
_geom_bond_atom_site_label_1
_geom_bond_atom_site_label_2
_geom_bond_distance
_geom_bond_site_symmetry_2
Gd0_0 Mg0_4 3.324692 1_555
Gd0_0 Mg0_0 3.324702 1_555
Gd0_0 Mg1_5 3.337766 1_554
Gd0_0 Mg1_4 3.337766 1_555
Gd0_0 Mg1_1 3.337776 1_554
Gd0_0 Mg1_0 3.337776 1_555
Gd0_0 Gd3_7 3.671107 1_544
Gd0_0 Gd3_6 3.671107 1_545
Gd0_0 Gd1_6 3.711461 1_545
Gd0_0 Gd1_2 3.711463 1_545
Gd0_0 Gd0_4 3.720470 1_455
Gd0_0 Gd0_4 3.720470 1_555
Gd0_1 Mg0_5 3.324692 1_555
Gd0_1 Mg0_1 3.324702 1_555
Gd0_1 Mg1_4 3.337766 1_555
Gd0_1 Mg1_5 3.337766 1_555
Gd0_1 Mg1_0 3.337776 1_555
Gd0_1 Mg1_1 3.337776 1_555
Gd0_1 Gd3_6 3.671107 1_545
Gd0_1 Gd3_7 3.671107 1_545
Gd0_1 Gd1_7 3.711461 1_545
Gd0_1 Gd1_3 3.711463 1_545
Gd0_1 Gd0_5 3.720470 1_455
Gd0_1 Gd0_5 3.720470 1_555
Gd0_2 Mg0_6 3.324692 1_555
Gd0_2 Mg0_2 3.324702 1_555
Gd0_2 Mg1_7 3.337766 1_554
Gd0_2 Mg1_6 3.337766 1_555
Gd0_2 Mg1_3 3.337776 1_554
Gd0_2 Mg1_2 3.337776 1_555
Gd0_2 Gd3_5 3.671107 1_554
Gd0_2 Gd3_4 3.671107 1_555
Gd0_2 Gd1_4 3.711461 1_555
Gd0_2 Gd1_0 3.711463 1_555
Gd0_2 Gd0_6 3.720470 1_555
Gd0_2 Gd0_6 3.720470 1_455
Gd0_3 Mg0_7 3.324692 1_555
Gd0_3 Mg0_3 3.324702 1_555
Gd0_3 Mg1_6 3.337766 1_555
Gd0_3 Mg1_7 3.337766 1_555
Gd0_3 Mg1_2 3.337776 1_555
Gd0_3 Mg1_3 3.337776 1_555
Gd0_3 Gd3_4 3.671107 1_555
Gd0_3 Gd3_5 3.671107 1_555
Gd0_3 Gd1_5 3.711461 1_555
Gd0_3 Gd1_1 3.711463 1_555
Gd0_3 Gd0_7 3.720470 1_455
Gd0_3 Gd0_7 3.720470 1_555
Gd0_4 Mg0_0 3.324692 1_655
Gd0_4 Mg0_4 3.324702 1_555
Gd0_4 Mg1_1 3.337766 1_654
Gd0_4 Mg1_0 3.337766 1_655
Gd0_4 Mg1_5 3.337776 1_554
Gd0_4 Mg1_4 3.337776 1_555
Gd0_4 Gd3_3 3.671107 1_644
Gd0_4 Gd3_2 3.671107 1_645
Gd0_4 Gd1_2 3.711461 1_645
Gd0_4 Gd1_6 3.711463 1_545
Gd0_5 Mg0_1 3.324692 1_655
Gd0_5 Mg0_5 3.324702 1_555
Gd0_5 Mg1_0 3.337766 1_655
Gd0_5 Mg1_1 3.337766 1_655
Gd0_5 Mg1_4 3.337776 1_555
Gd0_5 Mg1_5 3.337776 1_555
Gd0_5 Gd3_2 3.671107 1_645
Gd0_5 Gd3_3 3.671107 1_645
Gd0_5 Gd1_3 3.711461 1_645
Gd0_5 Gd1_7 3.711463 1_545
Gd0_6 Mg0_2 3.324692 1_655
Gd0_6 Mg0_6 3.324702 1_555
Gd0_6 Mg1_3 3.337766 1_654
Gd0_6 Mg1_2 3.337766 1_655
Gd0_6 Mg1_7 3.337776 1_554
Gd0_6 Mg1_6 3.337776 1_555
Gd0_6 Gd3_1 3.671107 1_654
Gd0_6 Gd3_0 3.671107 1_655
Gd0_6 Gd1_0 3.711461 1_655
Gd0_6 Gd1_4 3.711463 1_555
Gd0_7 Mg0_3 3.324692 1_655
Gd0_7 Mg0_7 3.324702 1_555
Gd0_7 Mg1_2 3.337766 1_655
Gd0_7 Mg1_3 3.337766 1_655
Gd0_7 Mg1_6 3.337776 1_555
Gd0_7 Mg1_7 3.337776 1_555
Gd0_7 Gd3_0 3.671107 1_655
Gd0_7 Gd3_1 3.671107 1_655
Gd0_7 Gd1_1 3.711461 1_655
Gd0_7 Gd1_5 3.711463 1_555
Gd1_0 Mg0_4 3.340821 1_555
Gd1_0 Mg0_0 3.340829 1_555
Gd1_0 Gd3_5 3.410408 1_554
Gd1_0 Gd3_4 3.410408 1_555
Gd1_0 Gd3_1 3.410416 1_554
Gd1_0 Gd3_0 3.410416 1_555
Gd1_0 Gd2_1 3.671119 1_554
Gd1_0 Gd2_0 3.671119 1_555
Gd1_0 Gd1_4 3.720470 1_555
Gd1_0 Gd1_4 3.720470 1_455
Gd1_1 Mg0_5 3.340821 1_555
Gd1_1 Mg0_1 3.340829 1_555
Gd1_1 Gd3_4 3.410408 1_555
Gd1_1 Gd3_5 3.410408 1_555
Gd1_1 Gd3_0 3.410416 1_555
Gd1_1 Gd3_1 3.410416 1_555
Gd1_1 Gd2_0 3.671119 1_555
Gd1_1 Gd2_1 3.671119 1_555
Gd1_1 Gd1_5 3.720470 1_455
Gd1_1 Gd1_5 3.720470 1_555
Gd1_2 Mg0_6 3.340821 1_555
Gd1_2 Mg0_2 3.340829 1_555
Gd1_2 Gd3_7 3.410408 1_554
Gd1_2 Gd3_6 3.410408 1_555
Gd1_2 Gd3_3 3.410416 1_554
Gd1_2 Gd3_2 3.410416 1_555
Gd1_2 Gd2_3 3.671119 1_554
Gd1_2 Gd2_2 3.671119 1_555
Gd1_2 Gd1_6 3.720470 1_455
Gd1_2 Gd1_6 3.720470 1_555
Gd1_3 Mg0_7 3.340821 1_555
Gd1_3 Mg0_3 3.340829 1_555
Gd1_3 Gd3_6 3.410408 1_555
Gd1_3 Gd3_7 3.410408 1_555
Gd1_3 Gd3_2 3.410416 1_555
Gd1_3 Gd3_3 3.410416 1_555
Gd1_3 Gd2_2 3.671119 1_555
Gd1_3 Gd2_3 3.671119 1_555
Gd1_3 Gd1_7 3.720470 1_455
Gd1_3 Gd1_7 3.720470 1_555
Gd1_4 Mg0_0 3.340821 1_655
Gd1_4 Mg0_4 3.340829 1_555
Gd1_4 Gd3_1 3.410408 1_654
Gd1_4 Gd3_0 3.410408 1_655
Gd1_4 Gd3_5 3.410416 1_554
Gd1_4 Gd3_4 3.410416 1_555
Gd1_4 Gd2_5 3.671119 1_554
Gd1_4 Gd2_4 3.671119 1_555
Gd1_5 Mg0_1 3.340821 1_655
Gd1_5 Mg0_5 3.340829 1_555
Gd1_5 Gd3_0 3.410408 1_655
Gd1_5 Gd3_1 3.410408 1_655
Gd1_5 Gd3_4 3.410416 1_555
Gd1_5 Gd3_5 3.410416 1_555
Gd1_5 Gd2_4 3.671119 1_555
Gd1_5 Gd2_5 3.671119 1_555
Gd1_6 Mg0_2 3.340821 1_655
Gd1_6 Mg0_6 3.340829 1_555
Gd1_6 Gd3_3 3.410408 1_654
Gd1_6 Gd3_2 3.410408 1_655
Gd1_6 Gd3_7 3.410416 1_554
Gd1_6 Gd3_6 3.410416 1_555
Gd1_6 Gd2_7 3.671119 1_554
Gd1_6 Gd2_6 3.671119 1_555
Gd1_7 Mg0_3 3.340821 1_655
Gd1_7 Mg0_7 3.340829 1_555
Gd1_7 Gd3_2 3.410408 1_655
Gd1_7 Gd3_3 3.410408 1_655
Gd1_7 Gd3_6 3.410416 1_555
Gd1_7 Gd3_7 3.410416 1_555
Gd1_7 Gd2_6 3.671119 1_555
Gd1_7 Gd2_7 3.671119 1_555
Gd2_0 Mg1_4 3.324696 1_555
Gd2_0 Mg1_0 3.324698 1_555
Gd2_0 Mg0_4 3.337770 1_555
Gd2_0 Mg0_5 3.337770 1_555
Gd2_0 Mg0_0 3.337772 1_555
Gd2_0 Mg0_1 3.337772 1_555
Gd2_0 Gd3_4 3.711477 1_555
Gd2_0 Gd3_0 3.711478 1_555
Gd2_0 Gd2_4 3.720470 1_555
Gd2_0 Gd2_4 3.720470 1_455
Gd2_1 Mg1_5 3.324696 1_555
Gd2_1 Mg1_1 3.324698 1_555
Gd2_1 Mg0_4 3.337770 1_556
Gd2_1 Mg0_5 3.337770 1_555
Gd2_1 Mg0_0 3.337772 1_556
Gd2_1 Mg0_1 3.337772 1_555
Gd2_1 Gd3_5 3.711477 1_555
Gd2_1 Gd3_1 3.711478 1_555
Gd2_1 Gd2_5 3.720470 1_555
Gd2_1 Gd2_5 3.720470 1_455
Gd2_2 Mg1_6 3.324696 1_555
Gd2_2 Mg1_2 3.324698 1_555
Gd2_2 Mg0_7 3.337770 1_555
Gd2_2 Mg0_6 3.337770 1_555
Gd2_2 Mg0_2 3.337772 1_555
Gd2_2 Mg0_3 3.337772 1_555
Gd2_2 Gd3_6 3.711477 1_555
Gd2_2 Gd3_2 3.711478 1_555
Gd2_2 Gd2_6 3.720470 1_455
Gd2_2 Gd2_6 3.720470 1_555
Gd2_3 Mg1_7 3.324696 1_555
Gd2_3 Mg1_3 3.324698 1_555
Gd2_3 Mg0_6 3.337770 1_556
Gd2_3 Mg0_7 3.337770 1_555
Gd2_3 Mg0_2 3.337772 1_556
Gd2_3 Mg0_3 3.337772 1_555
Gd2_3 Gd3_7 3.711477 1_555
Gd2_3 Gd3_3 3.711478 1_555
Gd2_3 Gd2_7 3.720470 1_455
Gd2_3 Gd2_7 3.720470 1_555
Gd2_4 Mg1_0 3.324696 1_655
Gd2_4 Mg1_4 3.324698 1_555
Gd2_4 Mg0_1 3.337770 1_655
Gd2_4 Mg0_0 3.337770 1_655
Gd2_4 Mg0_4 3.337772 1_555
Gd2_4 Mg0_5 3.337772 1_555
Gd2_4 Gd3_0 3.711477 1_655
Gd2_4 Gd3_4 3.711478 1_555
Gd2_5 Mg1_1 3.324696 1_655
Gd2_5 Mg1_5 3.324698 1_555
Gd2_5 Mg0_0 3.337770 1_656
Gd2_5 Mg0_1 3.337770 1_655
Gd2_5 Mg0_4 3.337772 1_556
Gd2_5 Mg0_5 3.337772 1_555
Gd2_5 Gd3_1 3.711477 1_655
Gd2_5 Gd3_5 3.711478 1_555
Gd2_6 Mg1_2 3.324696 1_655
Gd2_6 Mg1_6 3.324698 1_555
Gd2_6 Mg0_2 3.337770 1_655
Gd2_6 Mg0_3 3.337770 1_655
Gd2_6 Mg0_6 3.337772 1_555
Gd2_6 Mg0_7 3.337772 1_555
Gd2_6 Gd3_2 3.711477 1_655
Gd2_6 Gd3_6 3.711478 1_555
Gd2_7 Mg1_3 3.324696 1_655
Gd2_7 Mg1_7 3.324698 1_555
Gd2_7 Mg0_2 3.337770 1_656
Gd2_7 Mg0_3 3.337770 1_655
Gd2_7 Mg0_6 3.337772 1_556
Gd2_7 Mg0_7 3.337772 1_555
Gd2_7 Gd3_3 3.711477 1_655
Gd2_7 Gd3_7 3.711478 1_555
Gd3_0 Mg1_6 3.340810 1_455
Gd3_0 Mg1_2 3.340810 1_555
Gd3_0 Gd3_4 3.720470 1_455
Gd3_0 Gd3_4 3.720470 1_555
Gd3_1 Mg1_7 3.340810 1_455
Gd3_1 Mg1_3 3.340810 1_555
Gd3_1 Gd3_5 3.720470 1_555
Gd3_1 Gd3_5 3.720470 1_455
Gd3_2 Mg1_4 3.340810 1_465
Gd3_2 Mg1_0 3.340810 1_565
Gd3_2 Gd3_6 3.720470 1_455
Gd3_2 Gd3_6 3.720470 1_555
Gd3_3 Mg1_5 3.340810 1_465
Gd3_3 Mg1_1 3.340810 1_565
Gd3_3 Gd3_7 3.720470 1_455
Gd3_3 Gd3_7 3.720470 1_555
Gd3_4 Mg1_2 3.340810 1_555
Gd3_4 Mg1_6 3.340810 1_555
Gd3_5 Mg1_3 3.340810 1_555
Gd3_5 Mg1_7 3.340810 1_555
Gd3_6 Mg1_0 3.340810 1_565
Gd3_6 Mg1_4 3.340810 1_565
Gd3_7 Mg1_1 3.340810 1_565
Gd3_7 Mg1_5 3.340810 1_565
Mg0_0 Mg1_1 3.658271 1_554
Mg0_0 Mg1_0 3.658271 1_555
Mg0_0 Mg0_4 3.720470 1_555
Mg0_0 Mg0_4 3.720470 1_455
Mg0_1 Mg1_0 3.658271 1_555
Mg0_1 Mg1_1 3.658271 1_555
Mg0_1 Mg0_5 3.720470 1_555
Mg0_1 Mg0_5 3.720470 1_455
Mg0_2 Mg1_3 3.658271 1_554
Mg0_2 Mg1_2 3.658271 1_555
Mg0_2 Mg0_6 3.720470 1_555
Mg0_2 Mg0_6 3.720470 1_455
Mg0_3 Mg1_2 3.658271 1_555
Mg0_3 Mg1_3 3.658271 1_555
Mg0_3 Mg0_7 3.720470 1_555
Mg0_3 Mg0_7 3.720470 1_455
Mg0_4 Mg1_5 3.658271 1_554
Mg0_4 Mg1_4 3.658271 1_555
Mg0_5 Mg1_4 3.658271 1_555
Mg0_5 Mg1_5 3.658271 1_555
Mg0_6 Mg1_7 3.658271 1_554
Mg0_6 Mg1_6 3.658271 1_555
Mg0_7 Mg1_6 3.658271 1_555
Mg0_7 Mg1_7 3.658271 1_555
Mg1_0 Mg1_4 3.720470 1_555
Mg1_0 Mg1_4 3.720470 1_455
Mg1_1 Mg1_5 3.720470 1_555
Mg1_1 Mg1_5 3.720470 1_455
Mg1_2 Mg1_6 3.720470 1_555
Mg1_2 Mg1_6 3.720470 1_455
Mg1_3 Mg1_7 3.720470 1_555
Mg1_3 Mg1_7 3.720470 1_455
