# generated using pymatgen
data_KBiO3
_symmetry_space_group_name_H-M   'P 1'
_cell_length_a   8.64011955
_cell_length_b   8.64011955
_cell_length_c   10.03376254
_cell_angle_alpha   55.82079292
_cell_angle_beta   55.82079292
_cell_angle_gamma   71.90437720
_symmetry_Int_Tables_number   1
_chemical_formula_structural   KBiO3
_chemical_formula_sum   'K6 Bi6 O18'
_cell_volume   512.62705808
_cell_formula_units_Z   6
loop_
 _symmetry_equiv_pos_site_id
 _symmetry_equiv_pos_as_xyz
  1  'x, y, z'
loop_
 _atom_site_type_symbol
 _atom_site_label
 _atom_site_symmetry_multiplicity
 _atom_site_fract_x
 _atom_site_fract_y
 _atom_site_fract_z
 _atom_site_occupancy
  K  K0  1  0.50000000  0.00000000  0.00000000  1
  K  K1  1  0.68280305  0.01361866  0.30727019  1
  K  K2  1  0.01361866  0.68280305  0.30727019  1
  K  K3  1  -0.00000000  0.50000000  0.00000000  1
  K  K4  1  0.31719695  0.98638134  0.69272981  1
  K  K5  1  0.98638134  0.31719695  0.69272981  1
  Bi  Bi0  1  0.34086731  0.65913269  0.50000000  1
  Bi  Bi1  1  0.50102829  0.50102829  0.15915929  1
  Bi  Bi2  1  0.84070506  0.84070506  0.66101628  1
  Bi  Bi3  1  0.15929494  0.15929494  0.33898372  1
  Bi  Bi4  1  0.65913269  0.34086731  0.50000000  1
  Bi  Bi5  1  0.49897171  0.49897171  0.84084071  1
  O  O0  1  0.37528792  0.95178609  0.34207936  1
  O  O1  1  0.00526895  0.00526895  0.63595965  1
  O  O2  1  0.99473105  0.99473105  0.36404035  1
  O  O3  1  0.36018144  0.63981856  0.00000000  1
  O  O4  1  0.63981856  0.36018144  0.00000000  1
  O  O5  1  0.33672540  0.66488012  0.28645130  1
  O  O6  1  0.66488012  0.33672540  0.28645130  1
  O  O7  1  0.04821391  0.62471208  0.65792064  1
  O  O8  1  0.28580103  0.28580103  0.04990321  1
  O  O9  1  0.28884298  0.28884298  0.37793202  1
  O  O10  1  0.71115702  0.71115702  0.62206798  1
  O  O11  1  0.71419897  0.71419897  0.95009679  1
  O  O12  1  0.95178609  0.37528792  0.34207936  1
  O  O13  1  0.64006052  0.64006052  0.36795434  1
  O  O14  1  0.66327460  0.33511988  0.71354870  1
  O  O15  1  0.33511988  0.66327460  0.71354870  1
  O  O16  1  0.35993948  0.35993948  0.63204566  1
  O  O17  1  0.62471208  0.04821391  0.65792064  1
loop_
_geom_bond_atom_site_label_1
_geom_bond_atom_site_label_2
_geom_bond_distance
_geom_bond_site_symmetry_2
K0 O5 2.695576 1_545
K0 O14 2.695576 1_554
K0 O8 2.698636 1_555
K0 O11 2.698636 1_544
K0 O17 2.762692 1_554
K0 O0 2.762692 1_545
K1 O6 2.640771 1_555
K1 O0 2.663897 1_545
K1 O10 2.839633 1_545
K1 O4 2.971959 1_555
K1 O2 2.993634 1_545
K1 O13 3.033836 1_545
K1 K4 3.271774 1_545
K1 K2 3.356257 1_645
K2 O5 2.640771 1_555
K2 O12 2.663897 1_455
K2 O10 2.839633 1_455
K2 O3 2.971959 1_555
K2 O2 2.993634 1_455
K2 O13 3.033836 1_455
K2 K5 3.271774 1_455
K3 O6 2.695576 1_455
K3 O15 2.695576 1_554
K3 O11 2.698636 1_454
K3 O8 2.698636 1_555
K3 O7 2.762692 1_554
K3 O12 2.762692 1_455
K4 O15 2.640771 1_555
K4 O17 2.663897 1_565
K4 O9 2.839633 1_565
K4 O3 2.971959 1_556
K4 O1 2.993634 1_565
K4 O16 3.033836 1_565
K4 K5 3.356257 1_465
K5 O14 2.640771 1_555
K5 O7 2.663897 1_655
K5 O9 2.839633 1_655
K5 O4 2.971959 1_556
K5 O1 2.993634 1_655
K5 O16 3.033836 1_655
Bi0 O0 2.104475 1_555
Bi0 O7 2.104475 1_555
Bi0 O15 2.135509 1_555
Bi0 O5 2.135509 1_555
Bi0 O16 2.144200 1_555
Bi0 O13 2.144200 1_555
Bi1 O6 2.096830 1_555
Bi1 O5 2.096830 1_555
Bi1 O9 2.141323 1_555
Bi1 O4 2.143497 1_555
Bi1 O3 2.143497 1_555
Bi1 O11 2.147156 1_554
Bi2 O10 2.102301 1_555
Bi2 O11 2.102512 1_555
Bi2 O1 2.135210 1_665
Bi2 O2 2.147174 1_555
Bi2 O7 2.149937 1_655
Bi2 O17 2.149937 1_565
Bi3 O9 2.102301 1_555
Bi3 O8 2.102512 1_555
Bi3 O2 2.135210 1_445
Bi3 O1 2.147174 1_555
Bi3 O12 2.149937 1_455
Bi3 O0 2.149937 1_545
Bi4 O12 2.104475 1_555
Bi4 O17 2.104475 1_555
Bi4 O14 2.135509 1_555
Bi4 O6 2.135509 1_555
Bi4 O16 2.144200 1_555
Bi4 O13 2.144200 1_555
Bi5 O15 2.096830 1_555
Bi5 O14 2.096830 1_555
Bi5 O10 2.141323 1_555
Bi5 O3 2.143497 1_556
Bi5 O4 2.143497 1_556
Bi5 O8 2.147156 1_556
O0 O13 2.934117 1_555
O0 O9 2.948260 1_565
O1 O9 2.860742 1_555
O1 O11 2.949649 1_445
O2 O8 2.949649 1_665
O3 O5 2.892478 1_555
O4 O6 2.892478 1_555
O5 O9 2.937227 1_555
O6 O9 2.937227 1_555
O10 O2 2.860742 1_555
O10 O14 2.937227 1_555
O10 O15 2.937227 1_555
O10 O7 2.948260 1_655
O10 O17 2.948260 1_565
O12 O13 2.934117 1_555
O12 O9 2.948260 1_655
O14 O4 2.892478 1_556
O15 O3 2.892478 1_556
O16 O17 2.934117 1_555
O16 O7 2.934117 1_555
