# generated using pymatgen
data_Li4Ti3V2Cu3O16
_symmetry_space_group_name_H-M   'P 1'
_cell_length_a   5.91572716
_cell_length_b   5.91572716
_cell_length_c   9.73557506
_cell_angle_alpha   89.11357084
_cell_angle_beta   89.11357084
_cell_angle_gamma   60.03512918
_symmetry_Int_Tables_number   1
_chemical_formula_structural   Li4Ti3V2Cu3O16
_chemical_formula_sum   'Li4 Ti3 V2 Cu3 O16'
_cell_volume   295.11603464
_cell_formula_units_Z   1
loop_
 _symmetry_equiv_pos_site_id
 _symmetry_equiv_pos_as_xyz
  1  'x, y, z'
loop_
 _atom_site_type_symbol
 _atom_site_label
 _atom_site_symmetry_multiplicity
 _atom_site_fract_x
 _atom_site_fract_y
 _atom_site_fract_z
 _atom_site_occupancy
  Li  Li0  1  0.67336400  0.67336400  0.09350400  1
  Li  Li1  1  0.99301400  0.99301400  0.01621000  1
  Li  Li2  1  0.99691700  0.99691700  0.50635400  1
  Li  Li3  1  0.33538400  0.33538400  0.59381600  1
  Ti  Ti0  1  0.34543900  0.84605200  0.77754600  1
  Ti  Ti1  1  0.84605200  0.34543900  0.77754600  1
  Ti  Ti2  1  0.18153200  0.18153200  0.26292400  1
  V  V0  1  0.66166400  0.66166400  0.50083500  1
  V  V1  1  0.36162600  0.36162600  0.01381700  1
  Cu  Cu0  1  0.82873300  0.82873300  0.79105800  1
  Cu  Cu1  1  0.17263300  0.66215800  0.29682300  1
  Cu  Cu2  1  0.66215800  0.17263300  0.29682300  1
  O  O0  1  0.35038800  0.82669700  0.41327400  1
  O  O1  1  0.51715700  0.51715700  0.66582100  1
  O  O2  1  0.66194100  0.66194100  0.89080500  1
  O  O3  1  0.99506700  0.99506700  0.69722300  1
  O  O4  1  0.00038300  0.00038300  0.21012800  1
  O  O5  1  0.82669700  0.35038800  0.41327400  1
  O  O6  1  0.49601700  0.96272700  0.65240600  1
  O  O7  1  0.96272700  0.49601700  0.65240600  1
  O  O8  1  0.15995300  0.15995300  0.89512000  1
  O  O9  1  0.81748200  0.81748200  0.42986400  1
  O  O10  1  0.03654800  0.47086900  0.14959100  1
  O  O11  1  0.47086900  0.03654800  0.14959100  1
  O  O12  1  0.32927000  0.32927000  0.38829500  1
  O  O13  1  0.18150800  0.65085500  0.91189100  1
  O  O14  1  0.48395300  0.48395300  0.13331300  1
  O  O15  1  0.65085500  0.18150800  0.91189100  1
loop_
_geom_bond_atom_site_label_1
_geom_bond_atom_site_label_2
_geom_bond_distance
_geom_bond_site_symmetry_2
Li0 O10 1.947890 1_655
Li0 O11 1.947890 1_565
Li0 O14 1.971950 1_555
Li0 O2 1.978944 1_554
Li1 O4 1.890759 1_665
Li1 O13 2.036130 1_654
Li1 O15 2.036130 1_564
Li1 O8 2.059742 1_664
Li2 O3 1.857977 1_555
Li2 O9 1.995628 1_555
Li2 O5 2.018374 1_565
Li2 O0 2.018374 1_655
Li3 O7 1.993376 1_455
Li3 O6 1.993376 1_545
Li3 O1 2.001442 1_555
Li3 O12 2.002963 1_555
Cu0 O3 1.919006 1_555
Cu0 O2 1.950232 1_555
Cu0 O15 2.165725 1_565
Cu0 O13 2.165725 1_655
Cu0 O6 2.194323 1_555
Cu0 O7 2.194323 1_555
Cu1 O12 1.917852 1_555
Cu1 O4 1.921403 1_565
Cu1 O0 2.105233 1_555
Cu1 O9 2.227151 1_455
Cu1 O10 2.231404 1_555
Cu1 O14 2.249210 1_555
Cu2 O12 1.917852 1_555
Cu2 O4 1.921403 1_655
Cu2 O5 2.105233 1_555
Cu2 O9 2.227151 1_545
Cu2 O11 2.231404 1_555
Cu2 O14 2.249210 1_555
O0 V0 1.815938 1_555
O0 Ti2 2.324263 1_565
O1 Ti0 2.014329 1_555
O1 Ti1 2.014329 1_555
O1 V0 2.164859 1_555
O2 Ti0 1.974170 1_555
O2 Ti1 1.974170 1_555
O3 Ti1 1.971882 1_565
O3 Ti0 1.971882 1_655
O4 Ti2 1.934482 1_555
O5 V0 1.815938 1_555
O5 Ti2 2.324263 1_655
O6 Ti0 1.818996 1_555
O6 V0 2.145437 1_555
O7 Ti1 1.818996 1_555
O7 V0 2.145437 1_555
O8 Ti1 1.988465 1_455
O8 Ti0 1.988465 1_545
O8 V1 2.385210 1_556
O9 V0 1.728035 1_555
O10 Ti2 1.840407 1_555
O10 V1 2.137619 1_555
O11 Ti2 1.840407 1_555
O11 V1 2.137619 1_555
O12 Ti2 1.961243 1_555
O13 V1 1.790683 1_556
O13 Ti0 2.239909 1_555
O14 V1 1.725101 1_555
O15 V1 1.790683 1_556
O15 Ti1 2.239909 1_555
