# generated using pymatgen
data_NbGeRu2
_symmetry_space_group_name_H-M   'P 1'
_cell_length_a   4.37711152
_cell_length_b   4.37711152
_cell_length_c   4.37711152
_cell_angle_alpha   60.00000000
_cell_angle_beta   60.00000000
_cell_angle_gamma   60.00000000
_symmetry_Int_Tables_number   1
_chemical_formula_structural   NbGeRu2
_chemical_formula_sum   'Nb1 Ge1 Ru2'
_cell_volume   59.29906398
_cell_formula_units_Z   1
loop_
 _symmetry_equiv_pos_site_id
 _symmetry_equiv_pos_as_xyz
  1  'x, y, z'
loop_
 _atom_site_type_symbol
 _atom_site_label
 _atom_site_symmetry_multiplicity
 _atom_site_fract_x
 _atom_site_fract_y
 _atom_site_fract_z
 _atom_site_occupancy
  Nb  Nb0  1  0.75000000  0.75000000  0.75000000  1
  Ge  Ge0  1  0.25000100  0.25000100  0.25000100  1
  Ru  Ru0  1  0.00000000  -0.00000000  -0.00000000  1
  Ru  Ru1  1  0.50000000  0.50000000  0.50000000  1
loop_
_geom_bond_atom_site_label_1
_geom_bond_atom_site_label_2
_geom_bond_distance
_geom_bond_site_symmetry_2
Nb0 Ru0 2.680422 1_656
Nb0 Ru0 2.680422 1_665
Nb0 Ru1 2.680422 1_556
Nb0 Ru1 2.680422 1_565
Nb0 Ru0 2.680422 1_666
Nb0 Ru1 2.680422 1_555
Nb0 Ru1 2.680422 1_655
Nb0 Ru0 2.680422 1_566
Ge0 Ru1 2.680412 1_555
Ge0 Ru0 2.680419 1_655
Ge0 Ru0 2.680419 1_556
Ge0 Ru0 2.680419 1_565
Ge0 Ru1 2.680426 1_554
Ge0 Ru1 2.680426 1_455
Ge0 Ru1 2.680426 1_545
Ge0 Ru0 2.680433 1_555
Ge0 Nb0 3.095079 1_455
Ge0 Nb0 3.095079 1_554
Ge0 Nb0 3.095079 1_545
Ge0 Nb0 3.095091 1_445
Ge0 Nb0 3.095091 1_454
Ge0 Nb0 3.095091 1_544
Ru0 Ru1 3.095085 1_455
Ru0 Ru1 3.095085 1_454
Ru0 Ru1 3.095085 1_445
Ru0 Ru1 3.095085 1_545
Ru0 Ru1 3.095085 1_544
Ru0 Ru1 3.095085 1_554
