# generated using pymatgen
data_DyGaRh2
_symmetry_space_group_name_H-M   'P 1'
_cell_length_a   4.52682149
_cell_length_b   4.52682149
_cell_length_c   4.52682149
_cell_angle_alpha   60.00000000
_cell_angle_beta   60.00000000
_cell_angle_gamma   60.00000000
_symmetry_Int_Tables_number   1
_chemical_formula_structural   DyGaRh2
_chemical_formula_sum   'Dy1 Ga1 Rh2'
_cell_volume   65.59414988
_cell_formula_units_Z   1
loop_
 _symmetry_equiv_pos_site_id
 _symmetry_equiv_pos_as_xyz
  1  'x, y, z'
loop_
 _atom_site_type_symbol
 _atom_site_label
 _atom_site_symmetry_multiplicity
 _atom_site_fract_x
 _atom_site_fract_y
 _atom_site_fract_z
 _atom_site_occupancy
  Dy  Dy0  1  0.25000000  0.25000000  0.25000000  1
  Ga  Ga0  1  0.75000000  0.75000000  0.75000000  1
  Rh  Rh0  1  -0.00000000  -0.00000000  -0.00000000  1
  Rh  Rh1  1  0.49999900  0.49999900  0.49999900  1
loop_
_geom_bond_atom_site_label_1
_geom_bond_atom_site_label_2
_geom_bond_distance
_geom_bond_site_symmetry_2
Dy0 Rh1 2.772090 1_555
Dy0 Rh0 2.772101 1_555
Dy0 Rh0 2.772101 1_556
Dy0 Rh0 2.772101 1_565
Dy0 Rh0 2.772101 1_655
Dy0 Rh1 2.772104 1_545
Dy0 Rh1 2.772104 1_554
Dy0 Rh1 2.772104 1_455
Dy0 Ga0 3.200946 1_554
Dy0 Ga0 3.200946 1_454
Dy0 Ga0 3.200946 1_455
Dy0 Ga0 3.200946 1_544
Dy0 Ga0 3.200946 1_445
Dy0 Ga0 3.200946 1_545
Ga0 Rh1 2.772097 1_655
Ga0 Rh1 2.772097 1_556
Ga0 Rh1 2.772097 1_565
Ga0 Rh0 2.772101 1_566
Ga0 Rh0 2.772101 1_656
Ga0 Rh0 2.772101 1_665
Ga0 Rh0 2.772101 1_666
Ga0 Rh1 2.772112 1_555
Rh0 Rh1 3.200940 1_455
Rh0 Rh1 3.200940 1_545
Rh0 Rh1 3.200940 1_554
Rh0 Rh1 3.200953 1_445
Rh0 Rh1 3.200953 1_544
Rh0 Rh1 3.200953 1_454
