# generated using pymatgen
data_MgH4(NO4)2
_symmetry_space_group_name_H-M   'P 1'
_cell_length_a   5.99838800
_cell_length_b   5.75602700
_cell_length_c   8.69930907
_cell_angle_alpha   88.69856466
_cell_angle_beta   90.00000000
_cell_angle_gamma   90.00000000
_symmetry_Int_Tables_number   1
_chemical_formula_structural   MgH4(NO4)2
_chemical_formula_sum   'Mg2 H8 N4 O16'
_cell_volume   300.28254817
_cell_formula_units_Z   2
loop_
 _symmetry_equiv_pos_site_id
 _symmetry_equiv_pos_as_xyz
  1  'x, y, z'
loop_
 _atom_site_type_symbol
 _atom_site_label
 _atom_site_symmetry_multiplicity
 _atom_site_fract_x
 _atom_site_fract_y
 _atom_site_fract_z
 _atom_site_occupancy
  Mg  Mg0  1  0.50000000  0.50000000  0.00000000  1
  Mg  Mg1  1  0.00000000  0.50000000  0.50000000  1
  H  H0  1  0.71780700  0.91254400  0.01499400  1
  H  H1  1  0.17661800  0.22999600  0.11059700  1
  H  H2  1  0.67661800  0.77000400  0.38940300  1
  H  H3  1  0.21780700  0.08745600  0.48500600  1
  H  H4  1  0.78219300  0.91254400  0.51499400  1
  H  H5  1  0.32338200  0.22999600  0.61059700  1
  H  H6  1  0.82338200  0.77000400  0.88940300  1
  H  H7  1  0.28219300  0.08745600  0.98500600  1
  N  N0  1  0.15631000  0.75410000  0.19930800  1
  N  N1  1  0.65631000  0.24590000  0.30069200  1
  N  N2  1  0.34369000  0.75410000  0.69930800  1
  N  N3  1  0.84369000  0.24590000  0.80069200  1
  O  O0  1  0.25076300  0.24943500  0.01072300  1
  O  O1  1  0.26872800  0.75712800  0.07345100  1
  O  O2  1  0.62346300  0.44127700  0.23294200  1
  O  O3  1  0.58331100  0.06219700  0.24821600  1
  O  O4  1  0.08331100  0.93780300  0.25178400  1
  O  O5  1  0.12346300  0.55872300  0.26705800  1
  O  O6  1  0.76872800  0.24287200  0.42654900  1
  O  O7  1  0.75076300  0.75056500  0.48927700  1
  O  O8  1  0.24923700  0.24943500  0.51072300  1
  O  O9  1  0.23127200  0.75712800  0.57345100  1
  O  O10  1  0.87653700  0.44127700  0.73294200  1
  O  O11  1  0.91668900  0.06219700  0.74821600  1
  O  O12  1  0.41668900  0.93780300  0.75178400  1
  O  O13  1  0.37653700  0.55872300  0.76705800  1
  O  O14  1  0.73127200  0.24287200  0.92654900  1
  O  O15  1  0.74923700  0.75056500  0.98927700  1
loop_
_geom_bond_atom_site_label_1
_geom_bond_atom_site_label_2
_geom_bond_distance
_geom_bond_site_symmetry_2
Mg0 O15 2.077928 1_554
Mg0 O0 2.077928 1_555
Mg0 O1 2.136876 1_555
Mg0 O14 2.136876 1_554
Mg0 O2 2.176702 1_555
Mg0 O13 2.176702 1_554
Mg1 O7 2.077928 1_455
Mg1 O8 2.077928 1_555
Mg1 O9 2.136876 1_555
Mg1 O6 2.136876 1_455
Mg1 O10 2.176702 1_455
Mg1 O5 2.176702 1_555
H0 O15 0.982016 1_554
H1 O0 0.980194 1_555
H2 O7 0.980194 1_555
H3 O8 0.982016 1_555
H4 O7 0.982016 1_555
H5 O8 0.980194 1_555
H6 O15 0.980194 1_555
H7 O0 0.982016 1_556
N0 O4 1.241029 1_555
N0 O5 1.273104 1_555
N0 O1 1.285648 1_555
N1 O3 1.241029 1_555
N1 O2 1.273104 1_555
N1 O6 1.285648 1_555
N2 O12 1.241029 1_555
N2 O13 1.273104 1_555
N2 O9 1.285648 1_555
N3 O11 1.241029 1_555
N3 O10 1.273104 1_555
N3 O14 1.285648 1_555
