# generated using pymatgen
data_Ti2CdO5
_symmetry_space_group_name_H-M   'P 1'
_cell_length_a   5.47321540
_cell_length_b   5.47321540
_cell_length_c   10.74472300
_cell_angle_alpha   90.00000000
_cell_angle_beta   90.00000000
_cell_angle_gamma   140.16474142
_symmetry_Int_Tables_number   1
_chemical_formula_structural   Ti2CdO5
_chemical_formula_sum   'Ti4 Cd2 O10'
_cell_volume   206.18415256
_cell_formula_units_Z   2
loop_
 _symmetry_equiv_pos_site_id
 _symmetry_equiv_pos_as_xyz
  1  'x, y, z'
loop_
 _atom_site_type_symbol
 _atom_site_label
 _atom_site_symmetry_multiplicity
 _atom_site_fract_x
 _atom_site_fract_y
 _atom_site_fract_z
 _atom_site_occupancy
  Ti  Ti0  1  0.87055200  0.12944800  0.56570800  1
  Ti  Ti1  1  0.87055200  0.12944800  0.93429200  1
  Ti  Ti2  1  0.12944800  0.87055200  0.06570800  1
  Ti  Ti3  1  0.12944800  0.87055200  0.43429200  1
  Cd  Cd0  1  0.80969000  0.19031000  0.25000000  1
  Cd  Cd1  1  0.19031000  0.80969000  0.75000000  1
  O  O0  1  0.95618900  0.04381100  0.10337200  1
  O  O1  1  0.95618900  0.04381100  0.39662800  1
  O  O2  1  0.68513600  0.31486400  0.05247500  1
  O  O3  1  0.68513600  0.31486400  0.44752500  1
  O  O4  1  0.18511800  0.81488200  0.25000000  1
  O  O5  1  0.81488200  0.18511800  0.75000000  1
  O  O6  1  0.31486400  0.68513600  0.55247500  1
  O  O7  1  0.04381100  0.95618900  0.60337200  1
  O  O8  1  0.31486400  0.68513600  0.94752500  1
  O  O9  1  0.04381100  0.95618900  0.89662800  1
loop_
_geom_bond_atom_site_label_1
_geom_bond_atom_site_label_2
_geom_bond_distance
_geom_bond_site_symmetry_2
Cd0 O1 2.180674 1_555
Cd0 O0 2.180674 1_555
Cd0 O4 2.262790 1_545
Cd0 O4 2.262790 1_655
Cd0 O2 2.479427 1_555
Cd0 O3 2.479427 1_555
Cd1 O9 2.180674 1_555
Cd1 O7 2.180674 1_555
Cd1 O5 2.262790 1_565
Cd1 O5 2.262790 1_455
Cd1 O8 2.479427 1_555
Cd1 O6 2.479427 1_555
O0 Ti2 1.828468 1_645
O0 Ti1 2.019216 1_554
O0 O4 2.834279 1_645
O1 Ti3 1.828468 1_645
O1 Ti0 2.019216 1_555
O1 O4 2.834279 1_645
O2 Ti2 1.955824 1_545
O2 Ti2 1.955824 1_655
O2 Ti1 2.292132 1_554
O2 O8 2.555525 1_544
O2 O8 2.555525 1_654
O3 Ti3 1.955824 1_545
O3 Ti3 1.955824 1_655
O3 Ti0 2.292132 1_555
O3 O6 2.555525 1_545
O3 O6 2.555525 1_655
O4 Ti3 2.061387 1_555
O4 Ti2 2.061387 1_555
O5 Ti0 2.061387 1_555
O5 Ti1 2.061387 1_555
O5 O7 2.834279 1_645
O5 O9 2.834279 1_645
O6 Ti0 1.955824 1_565
O6 Ti0 1.955824 1_455
O6 Ti3 2.292132 1_555
O7 Ti0 1.828468 1_465
O7 Ti3 2.019216 1_555
O8 Ti1 1.955824 1_565
O8 Ti1 1.955824 1_455
O8 Ti2 2.292132 1_556
O9 Ti1 1.828468 1_465
O9 Ti2 2.019216 1_556
