# generated using pymatgen
data_Ca4SnS6
_symmetry_space_group_name_H-M   'P 1'
_cell_length_a   7.95022386
_cell_length_b   7.95022386
_cell_length_c   7.95022379
_cell_angle_alpha   90.73042548
_cell_angle_beta   90.73042548
_cell_angle_gamma   90.73042290
_symmetry_Int_Tables_number   1
_chemical_formula_structural   Ca4SnS6
_chemical_formula_sum   'Ca8 Sn2 S12'
_cell_volume   502.37876798
_cell_formula_units_Z   2
loop_
 _symmetry_equiv_pos_site_id
 _symmetry_equiv_pos_as_xyz
  1  'x, y, z'
loop_
 _atom_site_type_symbol
 _atom_site_label
 _atom_site_symmetry_multiplicity
 _atom_site_fract_x
 _atom_site_fract_y
 _atom_site_fract_z
 _atom_site_occupancy
  Ca  Ca0  1  0.75000000  0.75000000  0.75000000  1
  Ca  Ca1  1  0.25000000  0.25000000  0.25000000  1
  Ca  Ca2  1  0.86752900  0.63247100  0.25000000  1
  Ca  Ca3  1  0.25000000  0.86752900  0.63247100  1
  Ca  Ca4  1  0.63247100  0.25000000  0.86752900  1
  Ca  Ca5  1  0.75000000  0.13247100  0.36752900  1
  Ca  Ca6  1  0.36752900  0.75000000  0.13247100  1
  Ca  Ca7  1  0.13247100  0.36752900  0.75000000  1
  Sn  Sn0  1  0.50000000  0.50000000  0.50000000  1
  Sn  Sn1  1  0.00000000  0.00000000  0.00000000  1
  S  S0  1  0.81058600  0.44802200  0.56619000  1
  S  S1  1  0.56619000  0.81058600  0.44802200  1
  S  S2  1  0.44802200  0.56619000  0.81058600  1
  S  S3  1  0.06619000  0.94802200  0.31058600  1
  S  S4  1  0.31058600  0.06619000  0.94802200  1
  S  S5  1  0.94802200  0.31058600  0.06619000  1
  S  S6  1  0.18941400  0.55197800  0.43381000  1
  S  S7  1  0.43381000  0.18941400  0.55197800  1
  S  S8  1  0.55197800  0.43381000  0.18941400  1
  S  S9  1  0.93381000  0.05197800  0.68941400  1
  S  S10  1  0.68941400  0.93381000  0.05197800  1
  S  S11  1  0.05197800  0.68941400  0.93381000  1
loop_
_geom_bond_atom_site_label_1
_geom_bond_atom_site_label_2
_geom_bond_distance
_geom_bond_site_symmetry_2
Ca0 S10 2.844166 1_556
Ca0 S1 2.844166 1_555
Ca0 S11 2.844166 1_655
Ca0 S0 2.844166 1_555
Ca0 S9 2.844166 1_565
Ca0 S2 2.844166 1_555
Ca1 S7 2.844166 1_555
Ca1 S4 2.844166 1_554
Ca1 S6 2.844166 1_555
Ca1 S5 2.844166 1_455
Ca1 S8 2.844166 1_555
Ca1 S3 2.844166 1_545
Ca2 S11 2.963187 1_654
Ca2 S0 2.963187 1_555
Ca2 S3 2.978064 1_655
Ca2 S8 2.978064 1_555
Ca2 S5 3.010653 1_555
Ca2 S6 3.010653 1_655
Ca2 S1 3.216978 1_555
Ca2 S10 3.216978 1_555
Ca3 S9 2.963187 1_465
Ca3 S1 2.963187 1_555
Ca3 S4 2.978064 1_565
Ca3 S6 2.978064 1_555
Ca3 S3 3.010653 1_555
Ca3 S7 3.010654 1_565
Ca3 S2 3.216978 1_555
Ca3 S11 3.216978 1_555
Ca4 S2 2.963187 1_555
Ca4 S10 2.963187 1_546
Ca4 S7 2.978064 1_555
Ca4 S5 2.978064 1_556
Ca4 S8 3.010653 1_556
Ca4 S4 3.010654 1_555
Ca4 S9 3.216978 1_555
Ca4 S0 3.216978 1_555
Ca5 S3 2.963187 1_645
Ca5 S7 2.963187 1_555
Ca5 S10 2.978064 1_545
Ca5 S0 2.978064 1_555
Ca5 S9 3.010653 1_555
Ca5 S1 3.010654 1_545
Ca5 S8 3.216978 1_555
Ca5 S5 3.216978 1_555
Ca6 S8 2.963187 1_555
Ca6 S4 2.963187 1_564
Ca6 S1 2.978064 1_555
Ca6 S11 2.978064 1_554
Ca6 S2 3.010653 1_554
Ca6 S10 3.010654 1_555
Ca6 S3 3.216978 1_555
Ca6 S6 3.216978 1_555
Ca7 S6 2.963187 1_555
Ca7 S5 2.963187 1_456
Ca7 S2 2.978064 1_555
Ca7 S9 2.978064 1_455
Ca7 S11 3.010653 1_555
Ca7 S0 3.010653 1_455
Ca7 S4 3.216978 1_555
Ca7 S7 3.216978 1_555
S0 Sn0 2.557967 1_555
S0 S6 3.301664 1_655
S0 S9 3.459220 1_555
S1 Sn0 2.557967 1_555
S1 S7 3.301664 1_565
S1 S10 3.459220 1_555
S2 Sn0 2.557967 1_555
S2 S8 3.301664 1_556
S3 Sn1 2.557967 1_565
S3 S9 3.301664 1_465
S3 S6 3.459220 1_555
S4 Sn1 2.557967 1_556
S4 S7 3.459220 1_555
S5 Sn1 2.557967 1_655
S5 S8 3.459220 1_555
S6 Sn0 2.557967 1_555
S7 Sn0 2.557967 1_555
S8 Sn0 2.557967 1_555
S9 Sn1 2.557967 1_656
S10 Sn1 2.557967 1_665
S10 S4 3.301664 1_564
S11 Sn1 2.557967 1_566
S11 S5 3.301664 1_456
S11 S2 3.459220 1_555
