# generated using pymatgen
data_BaCaGaF7
_symmetry_space_group_name_H-M   'P 1'
_cell_length_a   5.52406900
_cell_length_b   5.49427900
_cell_length_c   19.88975107
_cell_angle_alpha   76.35832008
_cell_angle_beta   90.00000000
_cell_angle_gamma   90.00000000
_symmetry_Int_Tables_number   1
_chemical_formula_structural   BaCaGaF7
_chemical_formula_sum   'Ba4 Ca4 Ga4 F28'
_cell_volume   586.63968411
_cell_formula_units_Z   4
loop_
 _symmetry_equiv_pos_site_id
 _symmetry_equiv_pos_as_xyz
  1  'x, y, z'
loop_
 _atom_site_type_symbol
 _atom_site_label
 _atom_site_symmetry_multiplicity
 _atom_site_fract_x
 _atom_site_fract_y
 _atom_site_fract_z
 _atom_site_occupancy
  Ba  Ba0  1  0.24330400  0.31725200  0.43151000  1
  Ba  Ba1  1  0.75669600  0.68274800  0.56849000  1
  Ba  Ba2  1  0.75669600  0.31725200  0.93151000  1
  Ba  Ba3  1  0.24330400  0.68274800  0.06849000  1
  Ca  Ca0  1  0.32455100  0.50000000  0.75000000  1
  Ca  Ca1  1  0.67544900  0.50000000  0.25000000  1
  Ca  Ca2  1  0.79107200  0.00000000  0.75000000  1
  Ca  Ca3  1  0.20892800  0.00000000  0.25000000  1
  Ga  Ga0  1  0.22522500  0.17809800  0.61934800  1
  Ga  Ga1  1  0.77477500  0.17809800  0.11934800  1
  Ga  Ga2  1  0.22522500  0.82190200  0.88065200  1
  Ga  Ga3  1  0.77477500  0.82190200  0.38065200  1
  F  F0  1  0.05506200  0.84412300  0.43636200  1
  F  F1  1  0.05506200  0.15587700  0.06363800  1
  F  F2  1  0.94493800  0.15587700  0.56363800  1
  F  F3  1  0.94493800  0.84412300  0.93636200  1
  F  F4  1  0.02395400  0.34708900  0.67683700  1
  F  F5  1  0.02395400  0.65291100  0.82316300  1
  F  F6  1  0.97604600  0.65291100  0.32316300  1
  F  F7  1  0.97604600  0.34708900  0.17683700  1
  F  F8  1  0.28397700  0.50046600  0.55755200  1
  F  F9  1  0.28397700  0.49953400  0.94244800  1
  F  F10  1  0.71602300  0.49953400  0.44244800  1
  F  F11  1  0.71602300  0.50046600  0.05755200  1
  F  F12  1  0.59109600  0.02814800  0.06137700  1
  F  F13  1  0.59109600  0.97185200  0.43862300  1
  F  F14  1  0.40890400  0.97185200  0.93862300  1
  F  F15  1  0.40890400  0.02814800  0.56137700  1
  F  F16  1  0.87029700  0.87520500  0.18405500  1
  F  F17  1  0.87029700  0.12479500  0.31594500  1
  F  F18  1  0.12970300  0.12479500  0.81594500  1
  F  F19  1  0.12970300  0.87520500  0.68405500  1
  F  F20  1  0.49061600  0.75365900  0.82471700  1
  F  F21  1  0.49061600  0.24634100  0.67528300  1
  F  F22  1  0.50938400  0.24634100  0.17528300  1
  F  F23  1  0.50938400  0.75365900  0.32471700  1
  F  F24  1  0.37082800  0.73258200  0.19169600  1
  F  F25  1  0.37082800  0.26741800  0.30830400  1
  F  F26  1  0.62917200  0.26741800  0.80830400  1
  F  F27  1  0.62917200  0.73258200  0.69169600  1
loop_
_geom_bond_atom_site_label_1
_geom_bond_atom_site_label_2
_geom_bond_distance
_geom_bond_site_symmetry_2
Ba0 F25 2.625422 1_555
Ba0 F13 2.680642 1_545
Ba0 F0 2.780235 1_545
Ba0 F10 2.823505 1_555
Ba0 F15 2.845447 1_555
Ba0 F6 2.889647 1_455
Ba0 F8 2.922141 1_555
Ba0 F2 3.051217 1_455
Ba0 F0 3.098730 1_555
Ba0 F10 3.104377 1_455
Ba0 F23 3.165278 1_555
Ba1 F27 2.625422 1_555
Ba1 F15 2.680642 1_565
Ba1 F2 2.780235 1_565
Ba1 F8 2.823505 1_555
Ba1 F13 2.845447 1_555
Ba1 F4 2.889647 1_655
Ba1 F10 2.922141 1_555
Ba1 F0 3.051217 1_655
Ba1 F2 3.098730 1_555
Ba1 F8 3.104377 1_655
Ba1 F21 3.165278 1_555
Ba2 F26 2.625422 1_555
Ba2 F14 2.680642 1_545
Ba2 F3 2.780235 1_545
Ba2 F9 2.823505 1_555
Ba2 F12 2.845447 1_556
Ba2 F5 2.889647 1_655
Ba2 F11 2.922141 1_556
Ba2 F1 3.051217 1_656
Ba2 F3 3.098730 1_555
Ba2 F9 3.104377 1_655
Ba2 F20 3.165278 1_555
Ba3 F24 2.625422 1_555
Ba3 F12 2.680642 1_565
Ba3 F1 2.780235 1_565
Ba3 F11 2.823505 1_555
Ba3 F14 2.845447 1_554
Ba3 F7 2.889647 1_455
Ba3 F9 2.922141 1_554
Ba3 F3 3.051217 1_454
Ba3 F1 3.098730 1_555
Ba3 F11 3.104377 1_455
Ba3 F22 3.165278 1_555
Ca0 F26 2.260615 1_555
Ca0 F27 2.260615 1_555
Ca0 F18 2.419336 1_555
Ca0 F19 2.419336 1_555
Ca0 F20 2.443219 1_555
Ca0 F21 2.443219 1_555
Ca0 F5 2.481415 1_555
Ca0 F4 2.481415 1_555
Ca1 F25 2.260615 1_555
Ca1 F24 2.260615 1_555
Ca1 F16 2.419336 1_555
Ca1 F17 2.419336 1_555
Ca1 F23 2.443219 1_555
Ca1 F22 2.443219 1_555
Ca1 F6 2.481415 1_555
Ca1 F7 2.481415 1_555
Ca2 F26 2.259889 1_555
Ca2 F27 2.259889 1_545
Ca2 F20 2.417920 1_545
Ca2 F21 2.417920 1_555
Ca2 F5 2.469865 1_645
Ca2 F4 2.469865 1_655
Ca2 F18 2.472637 1_655
Ca2 F19 2.472637 1_645
Ca3 F25 2.259889 1_555
Ca3 F24 2.259889 1_545
Ca3 F22 2.417920 1_555
Ca3 F23 2.417920 1_545
Ca3 F6 2.469865 1_445
Ca3 F7 2.469865 1_455
Ca3 F17 2.472637 1_455
Ca3 F16 2.472637 1_445
F0 Ga3 1.924531 1_455
F0 F10 2.645501 1_455
F0 F13 2.660502 1_455
F0 F6 2.734815 1_455
F1 Ga1 1.924531 1_455
F1 F11 2.645501 1_455
F1 F12 2.660502 1_455
F1 F7 2.734815 1_455
F2 Ga0 1.924531 1_655
F2 F8 2.645501 1_655
F2 F4 2.734815 1_655
F3 Ga2 1.924531 1_655
F3 F9 2.645501 1_655
F3 F5 2.734815 1_655
F4 Ga0 1.976488 1_555
F4 F8 2.731161 1_555
F5 Ga2 1.976488 1_555
F5 F9 2.731161 1_555
F6 Ga3 1.976488 1_555
F7 Ga1 1.976488 1_555
F8 Ga0 1.930348 1_555
F9 Ga2 1.930348 1_555
F10 Ga3 1.930348 1_555
F10 F13 2.668928 1_555
F10 F23 2.682077 1_555
F10 F6 2.731161 1_555
F11 Ga1 1.930348 1_555
F11 F12 2.668928 1_555
F11 F22 2.682077 1_555
F11 F7 2.731161 1_555
F12 Ga1 1.867042 1_555
F12 F24 2.975014 1_545
F13 Ga3 1.867042 1_555
F13 F25 2.975014 1_565
F14 Ga2 1.867042 1_555
F14 F3 2.660502 1_455
F14 F9 2.668928 1_555
F14 F26 2.975014 1_565
F15 Ga0 1.867042 1_555
F15 F2 2.660502 1_455
F15 F8 2.668928 1_555
F15 F27 2.975014 1_545
F16 Ga1 1.921984 1_565
F16 F7 2.628343 1_565
F16 F24 2.862448 1_555
F16 F24 2.868103 1_655
F17 Ga3 1.921984 1_545
F17 F6 2.628343 1_545
F17 F25 2.862448 1_555
F17 F25 2.868103 1_655
F18 Ga2 1.921984 1_545
F18 F5 2.628343 1_545
F18 F26 2.862448 1_555
F18 F26 2.868103 1_455
F19 Ga0 1.921984 1_565
F19 F4 2.628343 1_565
F19 F27 2.862448 1_555
F19 F27 2.868103 1_455
F20 Ga2 1.929857 1_555
F20 F5 2.638344 1_555
F20 F9 2.682077 1_555
F20 F27 2.782764 1_555
F20 F26 2.868025 1_565
F20 F26 2.870701 1_555
F21 Ga0 1.929857 1_555
F21 F4 2.638344 1_555
F21 F8 2.682077 1_555
F21 F26 2.782764 1_555
F21 F27 2.868025 1_545
F21 F27 2.870701 1_555
F22 Ga1 1.929857 1_555
F22 F7 2.638344 1_555
F22 F25 2.782764 1_555
F22 F24 2.868025 1_545
F22 F24 2.870701 1_555
F23 Ga3 1.929857 1_555
F23 F6 2.638344 1_555
F23 F24 2.782764 1_555
F23 F25 2.868025 1_565
F23 F25 2.870701 1_555
F24 F25 3.019101 1_555
F24 F7 3.102331 1_455
F25 F6 3.102331 1_455
F26 F27 3.019101 1_555
F26 F5 3.102331 1_655
F27 F4 3.102331 1_655
