# generated using pymatgen
data_Li7Fe(O2F)2
_symmetry_space_group_name_H-M   'P 1'
_cell_length_a   5.52704700
_cell_length_b   5.89510329
_cell_length_c   9.94473146
_cell_angle_alpha   105.44390164
_cell_angle_beta   88.29325518
_cell_angle_gamma   117.46102347
_symmetry_Int_Tables_number   1
_chemical_formula_structural   Li7Fe(O2F)2
_chemical_formula_sum   'Li14 Fe2 O8 F4'
_cell_volume   275.48933247
_cell_formula_units_Z   2
loop_
 _symmetry_equiv_pos_site_id
 _symmetry_equiv_pos_as_xyz
  1  'x, y, z'
loop_
 _atom_site_type_symbol
 _atom_site_label
 _atom_site_symmetry_multiplicity
 _atom_site_fract_x
 _atom_site_fract_y
 _atom_site_fract_z
 _atom_site_occupancy
  Li  Li0  1  0.02424800  0.15489300  0.77327100  1
  Li  Li1  1  0.49676300  0.14670400  0.24855500  1
  Li  Li2  1  0.53499500  0.43892600  0.61797200  1
  Li  Li3  1  0.96801900  0.56123500  0.88094000  1
  Li  Li4  1  0.02357100  0.18059000  0.55780900  1
  Li  Li5  1  0.53642300  0.28730400  0.04368100  1
  Li  Li6  1  0.98571700  0.33283100  0.32357400  1
  Li  Li7  1  0.46773400  0.77921100  0.94244800  1
  Li  Li8  1  0.96786100  0.75274700  0.45944200  1
  Li  Li9  1  0.00878800  0.40314800  0.12157400  1
  Li  Li10  1  0.49546600  0.61008300  0.38513400  1
  Li  Li11  1  0.43768300  0.79992900  0.73156500  1
  Li  Li12  1  0.02742200  0.87023100  0.24988500  1
  Li  Li13  1  0.52103400  0.67538800  0.17574200  1
  Fe  Fe0  1  0.06081800  0.95905200  0.02336900  1
  Fe  Fe1  1  0.49595100  0.08929500  0.45607700  1
  O  O0  1  0.30119300  0.85614500  0.19668900  1
  O  O1  1  0.16840600  0.81258500  0.96120300  1
  O  O2  1  0.67572700  0.88194800  0.44641600  1
  O  O3  1  0.73528100  0.55890000  0.11166200  1
  O  O4  1  0.24284900  0.42490200  0.90023500  1
  O  O5  1  0.33094100  0.15372200  0.53634300  1
  O  O6  1  0.21446400  0.16489700  0.29810000  1
  O  O7  1  0.78653200  0.49645000  0.38030300  1
  F  F0  1  0.20721200  0.48774000  0.61109400  1
  F  F1  1  0.79872700  0.86103700  0.70833800  1
  F  F2  1  0.80553300  0.13882800  0.06602600  1
  F  F3  1  0.68064700  0.12128100  0.79255200  1
loop_
_geom_bond_atom_site_label_1
_geom_bond_atom_site_label_2
_geom_bond_distance
_geom_bond_site_symmetry_2
Li0 O4 1.683568 1_555
Li1 O0 1.491122 1_545
Li1 O6 1.664073 1_555
Li1 O7 2.042891 1_555
Li1 Li6 2.452176 1_555
Li2 O5 1.528570 1_555
Li3 O1 1.403036 1_655
Li3 O4 2.053179 1_655
Li4 O5 1.779130 1_555
Li4 O2 1.997326 1_445
Li5 O3 1.439902 1_555
Li6 O7 1.764419 1_555
Li6 O6 1.909036 1_655
Li6 Li9 2.145460 1_655
Li7 O1 1.752943 1_555
Li7 O4 1.803740 1_555
Li8 O7 1.386993 1_555
Li10 O2 1.405668 1_555
Li10 Li13 2.205357 1_555
Li11 Li7 2.148609 1_555
Li12 O6 1.498597 1_565
Li12 O0 1.619003 1_555
Li12 O3 1.980031 1_455
Li13 O3 1.658869 1_555
Li13 O0 1.927719 1_555
Fe0 O1 1.284007 1_554
Fe1 O5 1.314469 1_555
Fe1 O2 1.882169 1_545
F0 Li4 1.554217 1_555
F0 Li11 1.788697 1_555
F0 Li2 1.966806 1_555
F1 Li0 1.559573 1_665
F1 Li11 1.875910 1_555
F1 F3 1.920304 1_565
F1 Li2 2.160123 1_555
F2 Li9 1.399729 1_655
F2 Li7 2.142206 1_544
F3 Li11 1.688269 1_545
F3 Li0 1.825949 1_655
F3 Li3 2.256482 1_555
