# generated using pymatgen
data_Li2Co(SO4)2
_symmetry_space_group_name_H-M   'P 1'
_cell_length_a   9.18642800
_cell_length_b   9.30261800
_cell_length_c   13.80134700
_cell_angle_alpha   90.00000000
_cell_angle_beta   90.00000000
_cell_angle_gamma   90.00000000
_symmetry_Int_Tables_number   1
_chemical_formula_structural   Li2Co(SO4)2
_chemical_formula_sum   'Li16 Co8 S16 O64'
_cell_volume   1179.43317216
_cell_formula_units_Z   8
loop_
 _symmetry_equiv_pos_site_id
 _symmetry_equiv_pos_as_xyz
  1  'x, y, z'
loop_
 _atom_site_type_symbol
 _atom_site_label
 _atom_site_symmetry_multiplicity
 _atom_site_fract_x
 _atom_site_fract_y
 _atom_site_fract_z
 _atom_site_occupancy
  Li  Li0  1  0.77989100  0.96608100  0.37374700  1
  Li  Li1  1  0.72010900  0.96608100  0.87374700  1
  Li  Li2  1  0.04464400  0.77505800  0.37248400  1
  Li  Li3  1  0.45535600  0.77505800  0.87248400  1
  Li  Li4  1  0.95535600  0.72494200  0.87248400  1
  Li  Li5  1  0.54464400  0.72494200  0.37248400  1
  Li  Li6  1  0.27989100  0.53391900  0.37374700  1
  Li  Li7  1  0.22010900  0.53391900  0.87374700  1
  Li  Li8  1  0.77989100  0.46608100  0.12625300  1
  Li  Li9  1  0.72010900  0.46608100  0.62625300  1
  Li  Li10  1  0.45535600  0.27505800  0.62751600  1
  Li  Li11  1  0.04464400  0.27505800  0.12751600  1
  Li  Li12  1  0.54464400  0.22494200  0.12751600  1
  Li  Li13  1  0.95535600  0.22494200  0.62751600  1
  Li  Li14  1  0.22010900  0.03391900  0.62625300  1
  Li  Li15  1  0.27989100  0.03391900  0.12625300  1
  Co  Co0  1  0.89723200  0.86113800  0.12295100  1
  Co  Co1  1  0.60276800  0.86113800  0.62295100  1
  Co  Co2  1  0.39723200  0.63886200  0.12295100  1
  Co  Co3  1  0.10276800  0.63886200  0.62295100  1
  Co  Co4  1  0.89723200  0.36113800  0.37704900  1
  Co  Co5  1  0.60276800  0.36113800  0.87704900  1
  Co  Co6  1  0.39723200  0.13886200  0.37704900  1
  Co  Co7  1  0.10276800  0.13886200  0.87704900  1
  S  S0  1  0.93058400  0.92530900  0.72708500  1
  S  S1  1  0.56941600  0.92530900  0.22708500  1
  S  S2  1  0.31307600  0.83931400  0.49088900  1
  S  S3  1  0.18692400  0.83931400  0.99088900  1
  S  S4  1  0.81307600  0.66068600  0.49088900  1
  S  S5  1  0.68692400  0.66068600  0.99088900  1
  S  S6  1  0.06941600  0.57469100  0.22708500  1
  S  S7  1  0.43058400  0.57469100  0.72708500  1
  S  S8  1  0.56941600  0.42530900  0.27291500  1
  S  S9  1  0.93058400  0.42530900  0.77291500  1
  S  S10  1  0.31307600  0.33931400  0.00911100  1
  S  S11  1  0.18692400  0.33931400  0.50911100  1
  S  S12  1  0.81307600  0.16068600  0.00911100  1
  S  S13  1  0.68692400  0.16068600  0.50911100  1
  S  S14  1  0.43058400  0.07469100  0.77291500  1
  S  S15  1  0.06941600  0.07469100  0.27291500  1
  O  O0  1  0.30051800  0.99785700  0.47730600  1
  O  O1  1  0.19948200  0.99785700  0.97730600  1
  O  O2  1  0.00236600  0.98246200  0.34745100  1
  O  O3  1  0.49763400  0.98246200  0.84745100  1
  O  O4  1  0.53655000  0.97592800  0.32877400  1
  O  O5  1  0.96345000  0.97592800  0.82877400  1
  O  O6  1  0.76803300  0.92680000  0.72235700  1
  O  O7  1  0.73196700  0.92680000  0.22235700  1
  O  O8  1  0.27051500  0.81131000  0.08180000  1
  O  O9  1  0.22948500  0.81131000  0.58180000  1
  O  O10  1  0.03186700  0.79454100  0.00419900  1
  O  O11  1  0.46813300  0.79454100  0.50419900  1
  O  O12  1  0.98762900  0.77506000  0.72183800  1
  O  O13  1  0.51237100  0.77506000  0.22183800  1
  O  O14  1  0.25684100  0.75813200  0.40622500  1
  O  O15  1  0.24315900  0.75813200  0.90622500  1
  O  O16  1  0.75684100  0.74186800  0.40622500  1
  O  O17  1  0.74315900  0.74186800  0.90622500  1
  O  O18  1  0.01237100  0.72494000  0.22183800  1
  O  O19  1  0.48762900  0.72494000  0.72183800  1
  O  O20  1  0.96813300  0.70545900  0.50419900  1
  O  O21  1  0.53186700  0.70545900  0.00419900  1
  O  O22  1  0.77051500  0.68869000  0.08180000  1
  O  O23  1  0.72948500  0.68869000  0.58180000  1
  O  O24  1  0.23196700  0.57320000  0.22235700  1
  O  O25  1  0.26803300  0.57320000  0.72235700  1
  O  O26  1  0.46345000  0.52407200  0.82877400  1
  O  O27  1  0.03655000  0.52407200  0.32877400  1
  O  O28  1  0.50236600  0.51753800  0.34745100  1
  O  O29  1  0.99763400  0.51753800  0.84745100  1
  O  O30  1  0.80051800  0.50214300  0.47730600  1
  O  O31  1  0.69948200  0.50214300  0.97730600  1
  O  O32  1  0.30051800  0.49785700  0.02269400  1
  O  O33  1  0.19948200  0.49785700  0.52269400  1
  O  O34  1  0.49763400  0.48246200  0.65254900  1
  O  O35  1  0.00236600  0.48246200  0.15254900  1
  O  O36  1  0.53655000  0.47592800  0.17122600  1
  O  O37  1  0.96345000  0.47592800  0.67122600  1
  O  O38  1  0.73196700  0.42680000  0.27764300  1
  O  O39  1  0.76803300  0.42680000  0.77764300  1
  O  O40  1  0.27051500  0.31131000  0.41820000  1
  O  O41  1  0.22948500  0.31131000  0.91820000  1
  O  O42  1  0.46813300  0.29454100  0.99580100  1
  O  O43  1  0.03186700  0.29454100  0.49580100  1
  O  O44  1  0.51237100  0.27506000  0.27816200  1
  O  O45  1  0.98762900  0.27506000  0.77816200  1
  O  O46  1  0.25684100  0.25813200  0.09377500  1
  O  O47  1  0.24315900  0.25813200  0.59377500  1
  O  O48  1  0.75684100  0.24186800  0.09377500  1
  O  O49  1  0.74315900  0.24186800  0.59377500  1
  O  O50  1  0.48762900  0.22494000  0.77816200  1
  O  O51  1  0.01237100  0.22494000  0.27816200  1
  O  O52  1  0.53186700  0.20545900  0.49580100  1
  O  O53  1  0.96813300  0.20545900  0.99580100  1
  O  O54  1  0.77051500  0.18869000  0.41820000  1
  O  O55  1  0.72948500  0.18869000  0.91820000  1
  O  O56  1  0.26803300  0.07320000  0.77764300  1
  O  O57  1  0.23196700  0.07320000  0.27764300  1
  O  O58  1  0.46345000  0.02407200  0.67122600  1
  O  O59  1  0.03655000  0.02407200  0.17122600  1
  O  O60  1  0.99763400  0.01753800  0.65254900  1
  O  O61  1  0.50236600  0.01753800  0.15254900  1
  O  O62  1  0.80051800  0.00214300  0.02269400  1
  O  O63  1  0.69948200  0.00214300  0.52269400  1
loop_
_geom_bond_atom_site_label_1
_geom_bond_atom_site_label_2
_geom_bond_distance
_geom_bond_site_symmetry_2
Li0 O2 2.081309 1_655
Li0 O16 2.143871 1_555
Li0 O54 2.161532 1_565
Li0 O7 2.166306 1_555
Li0 O63 2.209967 1_565
Li0 O4 2.321812 1_555
Li1 O3 2.081309 1_555
Li1 O17 2.143871 1_555
Li1 O55 2.161532 1_565
Li1 O6 2.166306 1_555
Li1 O62 2.209967 1_566
Li1 O5 2.321812 1_555
Li2 O2 1.998197 1_555
Li2 O14 2.010358 1_555
Li2 O20 2.053721 1_455
Li2 O18 2.151278 1_555
Li2 O27 2.412647 1_555
Li2 O16 2.702275 1_455
Li3 O3 1.998197 1_555
Li3 O15 2.010358 1_555
Li3 O21 2.053721 1_556
Li3 O19 2.151278 1_555
Li3 O26 2.412647 1_555
Li3 O17 2.702275 1_555
Li4 O29 1.998197 1_555
Li4 O17 2.010358 1_555
Li4 O10 2.053721 1_656
Li4 O12 2.151278 1_555
Li4 O5 2.412647 1_555
Li4 O15 2.702275 1_655
Li5 O28 1.998197 1_555
Li5 O16 2.010358 1_555
Li5 O11 2.053721 1_555
Li5 O13 2.151278 1_555
Li5 O4 2.412647 1_555
Li5 O14 2.702275 1_555
Li6 O28 2.081309 1_555
Li6 O14 2.143871 1_555
Li6 O40 2.161532 1_555
Li6 O24 2.166306 1_555
Li6 O33 2.209967 1_555
Li6 O27 2.321812 1_555
Li7 O29 2.081309 1_455
Li7 O15 2.143871 1_555
Li7 O41 2.161532 1_555
Li7 O25 2.166306 1_555
Li7 O32 2.209967 1_556
Li7 O26 2.321812 1_555
Li8 O35 2.081309 1_655
Li8 O48 2.143871 1_555
Li8 O22 2.161532 1_555
Li8 O38 2.166306 1_555
Li8 O31 2.209967 1_554
Li8 O36 2.321812 1_555
Li9 O34 2.081309 1_555
Li9 O49 2.143871 1_555
Li9 O23 2.161532 1_555
Li9 O39 2.166306 1_555
Li9 O30 2.209967 1_555
Li9 O37 2.321812 1_555
Li10 O34 1.998197 1_555
Li10 O47 2.010358 1_555
Li10 O52 2.053721 1_555
Li10 O50 2.151278 1_555
Li10 O58 2.412647 1_555
Li10 O49 2.702275 1_555
Li11 O35 1.998197 1_555
Li11 O46 2.010358 1_555
Li11 O53 2.053721 1_454
Li11 O51 2.151278 1_555
Li11 O59 2.412647 1_555
Li11 O48 2.702275 1_455
Li12 O61 1.998197 1_555
Li12 O48 2.010358 1_555
Li12 O42 2.053721 1_554
Li12 O44 2.151278 1_555
Li12 O36 2.412647 1_555
Li12 O46 2.702275 1_555
Li13 O60 1.998197 1_555
Li13 O49 2.010358 1_555
Li13 O43 2.053721 1_655
Li13 O45 2.151278 1_555
Li13 O37 2.412647 1_555
Li13 O47 2.702275 1_655
Li14 O60 2.081309 1_455
Li14 O47 2.143871 1_555
Li14 O9 2.161532 1_545
Li14 O56 2.166306 1_555
Li14 O0 2.209967 1_545
Li14 O58 2.321812 1_555
Li15 O61 2.081309 1_555
Li15 O46 2.143871 1_555
Li15 O8 2.161532 1_545
Li15 O57 2.166306 1_555
Li15 O1 2.209967 1_544
Li15 O59 2.321812 1_555
Co0 O22 2.061830 1_555
Co0 O59 2.092669 1_665
Co0 O62 2.103456 1_565
Co0 O7 2.135471 1_555
Co0 O18 2.141648 1_655
Co0 O10 2.144677 1_655
Co1 O23 2.061830 1_555
Co1 O58 2.092669 1_565
Co1 O63 2.103456 1_565
Co1 O6 2.135471 1_555
Co1 O19 2.141648 1_555
Co1 O11 2.144677 1_555
Co2 O8 2.061830 1_555
Co2 O36 2.092669 1_555
Co2 O32 2.103456 1_555
Co2 O24 2.135471 1_555
Co2 O13 2.141648 1_555
Co2 O21 2.144677 1_555
Co3 O9 2.061830 1_555
Co3 O37 2.092669 1_455
Co3 O33 2.103456 1_555
Co3 O25 2.135471 1_555
Co3 O12 2.141648 1_455
Co3 O20 2.144677 1_455
Co4 O54 2.061830 1_555
Co4 O27 2.092669 1_655
Co4 O30 2.103456 1_555
Co4 O38 2.135471 1_555
Co4 O51 2.141648 1_655
Co4 O43 2.144677 1_655
Co5 O55 2.061830 1_555
Co5 O26 2.092669 1_555
Co5 O31 2.103456 1_555
Co5 O39 2.135471 1_555
Co5 O50 2.141648 1_555
Co5 O42 2.144677 1_555
Co6 O40 2.061830 1_555
Co6 O4 2.092669 1_545
Co6 O0 2.103456 1_545
Co6 O57 2.135471 1_555
Co6 O44 2.141648 1_555
Co6 O52 2.144677 1_555
Co7 O41 2.061830 1_555
Co7 O5 2.092669 1_445
Co7 O1 2.103456 1_545
Co7 O56 2.135471 1_555
Co7 O45 2.141648 1_455
Co7 O53 2.144677 1_455
O0 S2 1.491200 1_555
O1 S3 1.491200 1_555
O2 S15 1.474356 1_565
O3 S14 1.474356 1_565
O4 S1 1.510812 1_555
O5 S0 1.510812 1_555
O6 S0 1.494752 1_555
O7 S1 1.494752 1_555
O8 S3 1.493920 1_554
O9 S2 1.493920 1_555
O10 S3 1.495391 1_554
O11 S2 1.495391 1_555
O12 S0 1.494474 1_555
O13 S1 1.494474 1_555
O14 S2 1.484098 1_555
O15 S3 1.484098 1_555
O16 S4 1.484098 1_555
O17 S5 1.484098 1_555
O18 S6 1.494474 1_555
O19 S7 1.494474 1_555
O20 S4 1.495391 1_555
O21 S5 1.495391 1_554
O22 S5 1.493920 1_554
O23 S4 1.493920 1_555
O24 S6 1.494752 1_555
O25 S7 1.494752 1_555
O26 S7 1.510812 1_555
O27 S6 1.510812 1_555
O28 S8 1.474356 1_555
O29 S9 1.474356 1_555
O30 S4 1.491200 1_555
O31 S5 1.491200 1_555
O32 S10 1.491200 1_555
O33 S11 1.491200 1_555
O34 S7 1.474356 1_555
O35 S6 1.474356 1_555
O36 S8 1.510812 1_555
O37 S9 1.510812 1_555
O38 S8 1.494752 1_555
O39 S9 1.494752 1_555
O40 S11 1.493920 1_555
O41 S10 1.493920 1_556
O42 S10 1.495391 1_556
O43 S11 1.495391 1_555
O44 S8 1.494474 1_555
O45 S9 1.494474 1_555
O46 S10 1.484098 1_555
O47 S11 1.484098 1_555
O48 S12 1.484098 1_555
O49 S13 1.484098 1_555
O50 S14 1.494474 1_555
O51 S15 1.494474 1_555
O52 S13 1.495391 1_555
O53 S12 1.495391 1_556
O54 S13 1.493920 1_555
O55 S12 1.493920 1_556
O56 S14 1.494752 1_555
O57 S15 1.494752 1_555
O58 S14 1.510812 1_555
O59 S15 1.510812 1_555
O60 S0 1.474356 1_545
O61 S1 1.474356 1_545
O62 S12 1.491200 1_555
O63 S13 1.491200 1_555
