# generated using pymatgen
data_Li10Mg12Fe(PO4)12
_symmetry_space_group_name_H-M   'P 1'
_cell_length_a   5.96716900
_cell_length_b   10.25419665
_cell_length_c   14.26189501
_cell_angle_alpha   89.97016370
_cell_angle_beta   89.71685630
_cell_angle_gamma   89.89368573
_symmetry_Int_Tables_number   1
_chemical_formula_structural   Li10Mg12Fe(PO4)12
_chemical_formula_sum   'Li10 Mg12 Fe1 P12 O48'
_cell_volume   872.65203853
_cell_formula_units_Z   1
loop_
 _symmetry_equiv_pos_site_id
 _symmetry_equiv_pos_as_xyz
  1  'x, y, z'
loop_
 _atom_site_type_symbol
 _atom_site_label
 _atom_site_symmetry_multiplicity
 _atom_site_fract_x
 _atom_site_fract_y
 _atom_site_fract_z
 _atom_site_occupancy
  Li  Li0  1  0.50011300  0.00001800  0.33338100  1
  Li  Li1  1  0.99993100  0.99984300  0.66661000  1
  Li  Li2  1  0.49988700  0.99998200  0.66661900  1
  Li  Li3  1  0.00000000  0.00000000  0.00000000  1
  Li  Li4  1  0.50000000  0.00000000  0.00000000  1
  Li  Li5  1  0.00006900  0.00015700  0.33339000  1
  Li  Li6  1  0.00023700  0.49979200  0.16647100  1
  Li  Li7  1  0.99976300  0.50020800  0.83352900  1
  Li  Li8  1  0.49945900  0.49998200  0.16661500  1
  Li  Li9  1  0.50054100  0.50001800  0.83338500  1
  Mg  Mg0  1  0.75006200  0.77792000  0.82737300  1
  Mg  Mg1  1  0.74945900  0.77817600  0.16052700  1
  Mg  Mg2  1  0.75586500  0.77804300  0.49427800  1
  Mg  Mg3  1  0.24974500  0.72211100  0.99406500  1
  Mg  Mg4  1  0.24925200  0.72290400  0.32724800  1
  Mg  Mg5  1  0.24744200  0.72239000  0.66061600  1
  Mg  Mg6  1  0.75074800  0.27709600  0.67275200  1
  Mg  Mg7  1  0.75025500  0.27788900  0.00593500  1
  Mg  Mg8  1  0.75255800  0.27761000  0.33938400  1
  Mg  Mg9  1  0.24993800  0.22208000  0.17262700  1
  Mg  Mg10  1  0.25054100  0.22182400  0.83947300  1
  Mg  Mg11  1  0.24413500  0.22195700  0.50572200  1
  Fe  Fe0  1  0.50000000  0.50000000  0.50000000  1
  P  P0  1  0.25014300  0.90458700  0.80592700  1
  P  P1  1  0.24995800  0.90459600  0.13936800  1
  P  P2  1  0.25062300  0.90457300  0.47267600  1
  P  P3  1  0.75004800  0.59545400  0.97268500  1
  P  P4  1  0.74778800  0.59572300  0.30529000  1
  P  P5  1  0.75758800  0.59620700  0.64001200  1
  P  P6  1  0.24995200  0.40454600  0.02731500  1
  P  P7  1  0.25221200  0.40427700  0.69471000  1
  P  P8  1  0.24241200  0.40379300  0.35998800  1
  P  P9  1  0.75004200  0.09540400  0.86063200  1
  P  P10  1  0.74985700  0.09541300  0.19407300  1
  P  P11  1  0.74937700  0.09542700  0.52732400  1
  O  O0  1  0.74979200  0.95361000  0.23230400  1
  O  O1  1  0.75007600  0.95361000  0.89903300  1
  O  O2  1  0.74949500  0.95366800  0.56567800  1
  O  O3  1  0.24997800  0.89794000  0.91390600  1
  O  O4  1  0.24958400  0.89793600  0.24704600  1
  O  O5  1  0.24992000  0.89799000  0.58044300  1
  O  O6  1  0.04461100  0.83380800  0.76054500  1
  O  O7  1  0.45608600  0.83320400  0.75990600  1
  O  O8  1  0.04449800  0.83343400  0.09362800  1
  O  O9  1  0.04511400  0.83408500  0.42650300  1
  O  O10  1  0.45603700  0.83341500  0.09323800  1
  O  O11  1  0.45667700  0.83290100  0.42697300  1
  O  O12  1  0.54393400  0.66714200  0.25847200  1
  O  O13  1  0.95564000  0.66637300  0.26095700  1
  O  O14  1  0.54441600  0.66660600  0.92691400  1
  O  O15  1  0.54510600  0.66547400  0.59360800  1
  O  O16  1  0.95604900  0.66655900  0.92679300  1
  O  O17  1  0.95468400  0.67203900  0.59601300  1
  O  O18  1  0.74994100  0.60207600  0.08048400  1
  O  O19  1  0.75108300  0.60231800  0.74809000  1
  O  O20  1  0.73963100  0.60383400  0.41297100  1
  O  O21  1  0.24980100  0.54635800  0.06562800  1
  O  O22  1  0.25036100  0.54635000  0.73223900  1
  O  O23  1  0.25637600  0.54662600  0.39583400  1
  O  O24  1  0.75019900  0.45364200  0.93437200  1
  O  O25  1  0.74362400  0.45337400  0.60416600  1
  O  O26  1  0.74963900  0.45365000  0.26776100  1
  O  O27  1  0.25005900  0.39792400  0.91951600  1
  O  O28  1  0.26036900  0.39616600  0.58702900  1
  O  O29  1  0.24891700  0.39768200  0.25191000  1
  O  O30  1  0.04436000  0.33362700  0.73904300  1
  O  O31  1  0.04395100  0.33344100  0.07320700  1
  O  O32  1  0.45606600  0.33285800  0.74152800  1
  O  O33  1  0.45558400  0.33339400  0.07308600  1
  O  O34  1  0.04531600  0.32796100  0.40398700  1
  O  O35  1  0.45489400  0.33452600  0.40639200  1
  O  O36  1  0.54332300  0.16709900  0.57302700  1
  O  O37  1  0.95488600  0.16591500  0.57349700  1
  O  O38  1  0.54391400  0.16679600  0.24009400  1
  O  O39  1  0.54396300  0.16658500  0.90676200  1
  O  O40  1  0.95550200  0.16656600  0.90637200  1
  O  O41  1  0.95538900  0.16619200  0.23945500  1
  O  O42  1  0.75008000  0.10201000  0.41955700  1
  O  O43  1  0.75002200  0.10206000  0.08609400  1
  O  O44  1  0.75041600  0.10206400  0.75295400  1
  O  O45  1  0.25050500  0.04633200  0.43432200  1
  O  O46  1  0.25020800  0.04639000  0.76769600  1
  O  O47  1  0.24992400  0.04639000  0.10096700  1
loop_
_geom_bond_atom_site_label_1
_geom_bond_atom_site_label_2
_geom_bond_distance
_geom_bond_site_symmetry_2
Li0 O45 2.119760 1_555
Li0 O0 2.121583 1_545
Li0 O38 2.181504 1_555
Li0 O11 2.186621 1_545
Li0 O42 2.203275 1_555
Li0 O4 2.207270 1_545
Li1 O2 2.134036 1_555
Li1 O46 2.135714 1_665
Li1 O37 2.176053 1_565
Li1 O6 2.182664 1_655
Li1 O5 2.191736 1_655
Li1 O44 2.193029 1_565
Li2 O2 2.119760 1_555
Li2 O46 2.121583 1_565
Li2 O7 2.181504 1_555
Li2 O36 2.186621 1_565
Li2 O5 2.203275 1_555
Li2 O44 2.207270 1_565
Li3 O47 2.132719 1_555
Li3 O1 2.132719 1_444
Li3 O8 2.184096 1_545
Li3 O40 2.184096 1_454
Li3 O43 2.192122 1_455
Li3 O3 2.192122 1_544
Li4 O1 2.122137 1_544
Li4 O47 2.122137 1_555
Li4 O39 2.179641 1_554
Li4 O10 2.179641 1_545
Li4 O43 2.203174 1_555
Li4 O3 2.203174 1_544
Li5 O45 2.134036 1_555
Li5 O0 2.135714 1_445
Li5 O9 2.176053 1_545
Li5 O41 2.182664 1_455
Li5 O42 2.191736 1_455
Li5 O4 2.193029 1_545
Li6 O21 2.120118 1_555
Li6 O26 2.127762 1_455
Li6 O31 2.178138 1_555
Li6 O29 2.189499 1_555
Li6 O13 2.191270 1_455
Li6 O18 2.201281 1_455
Li7 O24 2.120118 1_555
Li7 O22 2.127762 1_655
Li7 O16 2.178138 1_555
Li7 O19 2.189499 1_555
Li7 O30 2.191270 1_655
Li7 O27 2.201281 1_655
Li8 O21 2.130196 1_555
Li8 O26 2.133825 1_555
Li8 O12 2.175373 1_555
Li8 O33 2.184801 1_555
Li8 O29 2.191307 1_555
Li8 O18 2.196653 1_555
Li9 O24 2.130196 1_555
Li9 O22 2.133825 1_555
Li9 O32 2.175373 1_555
Li9 O14 2.184801 1_555
Li9 O19 2.191307 1_555
Li9 O27 2.196653 1_555
Mg0 O1 2.071723 1_555
Mg0 O6 2.076697 1_655
Mg0 O7 2.082515 1_555
Mg0 O19 2.126724 1_555
Mg0 O14 2.193260 1_555
Mg0 O16 2.199006 1_555
Mg1 O0 2.070274 1_555
Mg1 O8 2.077847 1_655
Mg1 O10 2.078417 1_555
Mg1 O18 2.136834 1_555
Mg1 O12 2.176755 1_555
Mg1 O13 2.211345 1_555
Mg2 O9 2.056754 1_655
Mg2 O2 2.069509 1_555
Mg2 O11 2.106609 1_555
Mg2 O20 2.132857 1_555
Mg2 O17 2.169066 1_555
Mg2 O15 2.215173 1_555
Mg3 O21 2.070677 1_556
Mg3 O14 2.076811 1_555
Mg3 O16 2.082608 1_455
Mg3 O3 2.134374 1_555
Mg3 O8 2.190587 1_556
Mg3 O10 2.200583 1_556
Mg4 O23 2.055305 1_555
Mg4 O13 2.078510 1_455
Mg4 O12 2.088278 1_555
Mg4 O4 2.127807 1_555
Mg4 O9 2.183324 1_555
Mg4 O11 2.202572 1_555
Mg5 O17 2.046221 1_455
Mg5 O22 2.073747 1_555
Mg5 O15 2.094945 1_555
Mg5 O5 2.132535 1_555
Mg5 O6 2.186515 1_555
Mg5 O7 2.206999 1_555
Mg6 O25 2.055305 1_555
Mg6 O30 2.078510 1_655
Mg6 O32 2.088278 1_555
Mg6 O44 2.127807 1_555
Mg6 O37 2.183324 1_555
Mg6 O36 2.202572 1_555
Mg7 O24 2.070677 1_554
Mg7 O33 2.076811 1_555
Mg7 O31 2.082608 1_655
Mg7 O43 2.134374 1_555
Mg7 O40 2.190587 1_554
Mg7 O39 2.200583 1_554
Mg8 O34 2.046221 1_655
Mg8 O26 2.073747 1_555
Mg8 O35 2.094945 1_555
Mg8 O42 2.132535 1_555
Mg8 O41 2.186515 1_555
Mg8 O38 2.206999 1_555
Mg9 O47 2.071723 1_555
Mg9 O41 2.076697 1_455
Mg9 O38 2.082515 1_555
Mg9 O29 2.126724 1_555
Mg9 O33 2.193260 1_555
Mg9 O31 2.199006 1_555
Mg10 O46 2.070274 1_555
Mg10 O40 2.077847 1_455
Mg10 O39 2.078417 1_555
Mg10 O27 2.136834 1_555
Mg10 O32 2.176755 1_555
Mg10 O30 2.211345 1_555
Mg11 O37 2.056754 1_455
Mg11 O45 2.069509 1_555
Mg11 O36 2.106609 1_555
Mg11 O28 2.132857 1_555
Mg11 O34 2.169066 1_555
Mg11 O35 2.215173 1_555
Fe0 O25 2.137057 1_555
Fe0 O23 2.137057 1_555
Fe0 O20 2.169247 1_555
Fe0 O28 2.169247 1_555
Fe0 O15 2.177496 1_555
Fe0 O35 2.177496 1_555
O0 P10 1.552677 1_565
O1 P9 1.553442 1_565
O2 P11 1.552871 1_565
O3 P0 1.541453 1_555
O4 P1 1.537165 1_555
O5 P2 1.538394 1_555
O6 P0 1.568908 1_555
O7 P0 1.570336 1_555
O8 P1 1.572531 1_555
O9 P2 1.572156 1_555
O10 P1 1.570652 1_555
O11 P2 1.570361 1_555
O12 P4 1.570378 1_555
O13 P4 1.567811 1_555
O14 P3 1.571043 1_555
O15 P5 1.598298 1_555
O16 P3 1.570324 1_555
O17 P5 1.541830 1_555
O18 P3 1.538949 1_554
O19 P5 1.542997 1_555
O20 P4 1.538554 1_555
O21 P6 1.553703 1_555
O22 P7 1.552317 1_555
O23 P8 1.554065 1_555
O24 P3 1.553703 1_555
O25 P5 1.554065 1_555
O26 P4 1.552317 1_555
O27 P6 1.538949 1_556
O28 P7 1.538554 1_555
O29 P8 1.542997 1_555
O30 P7 1.567811 1_555
O31 P6 1.570324 1_555
O32 P7 1.570378 1_555
O33 P6 1.571043 1_555
O34 P8 1.541830 1_555
O35 P8 1.598298 1_555
O36 P11 1.570361 1_555
O37 P11 1.572156 1_555
O38 P10 1.570336 1_555
O39 P9 1.570652 1_555
O40 P9 1.572531 1_555
O41 P10 1.568908 1_555
O42 P11 1.538394 1_555
O43 P10 1.541453 1_555
O44 P9 1.537165 1_555
O45 P2 1.552871 1_545
O46 P0 1.552677 1_545
O47 P1 1.553442 1_545
