# generated using pymatgen
data_Co3P4O15
_symmetry_space_group_name_H-M   'P 1'
_cell_length_a   6.32422800
_cell_length_b   10.58157000
_cell_length_c   17.83846900
_cell_angle_alpha   90.00000000
_cell_angle_beta   90.00000000
_cell_angle_gamma   90.00000000
_symmetry_Int_Tables_number   1
_chemical_formula_structural   Co3P4O15
_chemical_formula_sum   'Co12 P16 O60'
_cell_volume   1193.75500628
_cell_formula_units_Z   4
loop_
 _symmetry_equiv_pos_site_id
 _symmetry_equiv_pos_as_xyz
  1  'x, y, z'
loop_
 _atom_site_type_symbol
 _atom_site_label
 _atom_site_symmetry_multiplicity
 _atom_site_fract_x
 _atom_site_fract_y
 _atom_site_fract_z
 _atom_site_occupancy
  Co  Co0  1  0.08735800  0.50304100  0.12907800  1
  Co  Co1  1  0.10767300  0.99405500  0.16152300  1
  Co  Co2  1  0.81617900  0.25649400  0.23903600  1
  Co  Co3  1  0.31617900  0.75649400  0.26096400  1
  Co  Co4  1  0.60767300  0.49405500  0.33847700  1
  Co  Co5  1  0.58735800  0.00304100  0.37092200  1
  Co  Co6  1  0.08735800  0.99695900  0.62907800  1
  Co  Co7  1  0.10767300  0.50594500  0.66152300  1
  Co  Co8  1  0.81617900  0.24350600  0.73903600  1
  Co  Co9  1  0.31617900  0.74350600  0.76096400  1
  Co  Co10  1  0.60767300  0.00594500  0.83847700  1
  Co  Co11  1  0.58735800  0.49695900  0.87092200  1
  P  P0  1  0.14391300  0.77078500  0.05022100  1
  P  P1  1  0.96266100  0.23379300  0.07257200  1
  P  P2  1  0.58851500  0.52087300  0.18174500  1
  P  P3  1  0.60218200  0.99654600  0.20978200  1
  P  P4  1  0.10218200  0.49654600  0.29021800  1
  P  P5  1  0.08851500  0.02087300  0.31825500  1
  P  P6  1  0.46266100  0.73379300  0.42742800  1
  P  P7  1  0.64391300  0.27078500  0.44977900  1
  P  P8  1  0.14391300  0.72921500  0.55022100  1
  P  P9  1  0.96266100  0.26620700  0.57257200  1
  P  P10  1  0.58851500  0.97912700  0.68174500  1
  P  P11  1  0.60218200  0.50345400  0.70978200  1
  P  P12  1  0.10218200  0.00345400  0.79021800  1
  P  P13  1  0.08851500  0.47912700  0.81825500  1
  P  P14  1  0.46266100  0.76620700  0.92742800  1
  P  P15  1  0.64391300  0.22921500  0.94977900  1
  O  O0  1  0.97123600  0.84245700  0.00943000  1
  O  O1  1  0.36660200  0.79645500  0.00831500  1
  O  O2  1  0.10424700  0.62814600  0.04747100  1
  O  O3  1  0.08223800  0.35819000  0.06303700  1
  O  O4  1  0.10385600  0.11882800  0.08850000  1
  O  O5  1  0.78549100  0.24234800  0.13186900  1
  O  O6  1  0.39459300  0.49856800  0.13259000  1
  O  O7  1  0.18276200  0.81800500  0.13068500  1
  O  O8  1  0.78915600  0.54110400  0.13524800  1
  O  O9  1  0.41486200  0.01889300  0.15923100  1
  O  O10  1  0.79864700  0.96589300  0.16417000  1
  O  O11  1  0.62094100  0.40436900  0.23691400  1
  O  O12  1  0.55446100  0.62967700  0.24061900  1
  O  O13  1  0.05200400  0.39018800  0.22986800  1
  O  O14  1  0.13287800  0.61632900  0.23674100  1
  O  O15  1  0.63287800  0.11632900  0.26325900  1
  O  O16  1  0.55200400  0.89018800  0.27013200  1
  O  O17  1  0.05446100  0.12967700  0.25938100  1
  O  O18  1  0.12094100  0.90436900  0.26308600  1
  O  O19  1  0.29864700  0.46589300  0.33583000  1
  O  O20  1  0.91486200  0.51889300  0.34076900  1
  O  O21  1  0.28915600  0.04110400  0.36475200  1
  O  O22  1  0.68276200  0.31800500  0.36931500  1
  O  O23  1  0.89459300  0.99856800  0.36741000  1
  O  O24  1  0.28549100  0.74234800  0.36813100  1
  O  O25  1  0.60385600  0.61882800  0.41150000  1
  O  O26  1  0.58223800  0.85819000  0.43696300  1
  O  O27  1  0.60424700  0.12814600  0.45252900  1
  O  O28  1  0.86660200  0.29645500  0.49168500  1
  O  O29  1  0.47123600  0.34245700  0.49057000  1
  O  O30  1  0.97123600  0.65754300  0.50943000  1
  O  O31  1  0.36660200  0.70354500  0.50831500  1
  O  O32  1  0.10424700  0.87185400  0.54747100  1
  O  O33  1  0.08223800  0.14181000  0.56303700  1
  O  O34  1  0.10385600  0.38117200  0.58850000  1
  O  O35  1  0.78549100  0.25765200  0.63186900  1
  O  O36  1  0.39459300  0.00143200  0.63259000  1
  O  O37  1  0.18276200  0.68199500  0.63068500  1
  O  O38  1  0.78915600  0.95889600  0.63524800  1
  O  O39  1  0.41486200  0.48110700  0.65923100  1
  O  O40  1  0.79864700  0.53410700  0.66417000  1
  O  O41  1  0.62094100  0.09563100  0.73691400  1
  O  O42  1  0.55446100  0.87032300  0.74061900  1
  O  O43  1  0.05200400  0.10981200  0.72986800  1
  O  O44  1  0.13287800  0.88367100  0.73674100  1
  O  O45  1  0.63287800  0.38367100  0.76325900  1
  O  O46  1  0.55200400  0.60981200  0.77013200  1
  O  O47  1  0.05446100  0.37032300  0.75938100  1
  O  O48  1  0.12094100  0.59563100  0.76308600  1
  O  O49  1  0.29864700  0.03410700  0.83583000  1
  O  O50  1  0.91486200  0.98110700  0.84076900  1
  O  O51  1  0.28915600  0.45889600  0.86475200  1
  O  O52  1  0.68276200  0.18199500  0.86931500  1
  O  O53  1  0.89459300  0.50143200  0.86741000  1
  O  O54  1  0.28549100  0.75765200  0.86813100  1
  O  O55  1  0.60385600  0.88117200  0.91150000  1
  O  O56  1  0.58223800  0.64181000  0.93696300  1
  O  O57  1  0.60424700  0.37185400  0.95252900  1
  O  O58  1  0.86660200  0.20354500  0.99168500  1
  O  O59  1  0.47123600  0.15754300  0.99057000  1
loop_
_geom_bond_atom_site_label_1
_geom_bond_atom_site_label_2
_geom_bond_distance
_geom_bond_site_symmetry_2
Co0 O8 1.931565 1_455
Co0 O3 1.933449 1_555
Co0 O6 1.944610 1_555
Co0 O2 1.970549 1_555
Co0 O13 2.169931 1_555
Co0 O14 2.282191 1_555
Co1 O4 1.854879 1_565
Co1 O9 1.960857 1_565
Co1 O10 1.977503 1_455
Co1 O7 1.999616 1_555
Co1 O18 2.046958 1_555
Co1 O17 2.284730 1_565
Co2 O5 1.927343 1_555
Co2 O15 1.931404 1_555
Co2 O11 1.993598 1_555
Co2 O17 2.050212 1_655
Co2 O13 2.062137 1_655
Co2 O22 2.556649 1_555
Co3 O24 1.927343 1_555
Co3 O14 1.931404 1_555
Co3 O18 1.993598 1_555
Co3 O12 2.050212 1_555
Co3 O16 2.062137 1_555
Co3 O7 2.556649 1_555
Co4 O25 1.854879 1_555
Co4 O20 1.960857 1_555
Co4 O19 1.977503 1_555
Co4 O22 1.999616 1_555
Co4 O11 2.046958 1_555
Co4 O12 2.284730 1_555
Co5 O21 1.931565 1_555
Co5 O26 1.933449 1_545
Co5 O23 1.944610 1_545
Co5 O27 1.970549 1_555
Co5 O16 2.169931 1_545
Co5 O15 2.282191 1_555
Co6 O38 1.931565 1_455
Co6 O33 1.933449 1_565
Co6 O36 1.944610 1_565
Co6 O32 1.970549 1_555
Co6 O43 2.169931 1_565
Co6 O44 2.282191 1_555
Co7 O34 1.854879 1_555
Co7 O39 1.960857 1_555
Co7 O40 1.977503 1_455
Co7 O37 1.999616 1_555
Co7 O48 2.046958 1_555
Co7 O47 2.284730 1_555
Co8 O35 1.927343 1_555
Co8 O45 1.931404 1_555
Co8 O41 1.993598 1_555
Co8 O47 2.050212 1_655
Co8 O43 2.062137 1_655
Co8 O52 2.556649 1_555
Co9 O54 1.927343 1_555
Co9 O44 1.931404 1_555
Co9 O48 1.993598 1_555
Co9 O42 2.050212 1_555
Co9 O46 2.062137 1_555
Co9 O37 2.556649 1_555
Co10 O55 1.854879 1_545
Co10 O50 1.960857 1_545
Co10 O49 1.977503 1_555
Co10 O52 1.999616 1_555
Co10 O41 2.046958 1_555
Co10 O42 2.284730 1_545
Co11 O51 1.931565 1_555
Co11 O56 1.933449 1_555
Co11 O53 1.944610 1_555
Co11 O57 1.970549 1_555
Co11 O46 2.169931 1_555
Co11 O45 2.282191 1_555
O0 P0 1.515657 1_655
O1 P14 1.597956 1_554
O1 P0 1.617407 1_555
O2 P0 1.530835 1_555
O3 P1 1.527581 1_455
O4 P1 1.535574 1_455
O5 P1 1.543537 1_555
O6 P2 1.525990 1_555
O7 P0 1.539568 1_555
O8 P2 1.530979 1_555
O9 P3 1.507475 1_545
O10 P3 1.520201 1_555
O11 P2 1.590708 1_555
O12 P2 1.573175 1_555
O13 P4 1.589424 1_555
O14 P4 1.598199 1_555
O15 P3 1.598199 1_545
O16 P3 1.589424 1_555
O17 P5 1.573175 1_555
O18 P5 1.590708 1_565
O19 P4 1.520201 1_555
O20 P4 1.507475 1_655
O21 P5 1.530979 1_555
O22 P7 1.539568 1_555
O23 P5 1.525990 1_665
O24 P6 1.543537 1_555
O25 P6 1.535574 1_555
O26 P6 1.527581 1_555
O27 P7 1.530835 1_555
O28 P9 1.597956 1_555
O28 P7 1.617407 1_555
O29 P7 1.515657 1_555
O30 P8 1.515657 1_655
O31 P6 1.597956 1_555
O31 P8 1.617407 1_555
O32 P8 1.530835 1_555
O33 P9 1.527581 1_455
O34 P9 1.535574 1_455
O35 P9 1.543537 1_555
O36 P10 1.525990 1_545
O37 P8 1.539568 1_555
O38 P10 1.530979 1_555
O39 P11 1.507475 1_555
O40 P11 1.520201 1_555
O41 P10 1.590708 1_545
O42 P10 1.573175 1_555
O43 P12 1.589424 1_555
O44 P12 1.598199 1_565
O45 P11 1.598199 1_555
O46 P11 1.589424 1_555
O47 P13 1.573175 1_555
O48 P13 1.590708 1_555
O49 P12 1.520201 1_555
O50 P12 1.507475 1_665
O51 P13 1.530979 1_555
O52 P15 1.539568 1_555
O53 P13 1.525990 1_655
O54 P14 1.543537 1_555
O55 P14 1.535574 1_555
O56 P14 1.527581 1_555
O57 P15 1.530835 1_555
O58 P1 1.597956 1_556
O58 P15 1.617407 1_555
O59 P15 1.515657 1_555
