# generated using pymatgen
data_Pr3SiAgS7
_symmetry_space_group_name_H-M   'P 1'
_cell_length_a   10.38985304
_cell_length_b   10.38985304
_cell_length_c   5.78563894
_cell_angle_alpha   90.00000000
_cell_angle_beta   90.00000000
_cell_angle_gamma   119.99999548
_symmetry_Int_Tables_number   1
_chemical_formula_structural   Pr3SiAgS7
_chemical_formula_sum   'Pr6 Si2 Ag2 S14'
_cell_volume   540.87983242
_cell_formula_units_Z   2
loop_
 _symmetry_equiv_pos_site_id
 _symmetry_equiv_pos_as_xyz
  1  'x, y, z'
loop_
 _atom_site_type_symbol
 _atom_site_label
 _atom_site_symmetry_multiplicity
 _atom_site_fract_x
 _atom_site_fract_y
 _atom_site_fract_z
 _atom_site_occupancy
  Pr  Pr0  1  0.12217792  0.35954468  0.25039154  1
  Pr  Pr1  1  0.87782208  0.64045532  0.75039154  1
  Pr  Pr2  1  0.64045532  0.76263325  0.25039154  1
  Pr  Pr3  1  0.23736675  0.87782208  0.25039154  1
  Pr  Pr4  1  0.76263325  0.12217792  0.75039154  1
  Pr  Pr5  1  0.35954468  0.23736675  0.75039154  1
  Si  Si0  1  0.33333300  0.66666700  0.66112089  1
  Si  Si1  1  0.66666700  0.33333300  0.16112089  1
  Ag  Ag0  1  0.00000000  0.00000000  0.29122135  1
  Ag  Ag1  1  0.00000000  0.00000000  0.79122135  1
  S  S0  1  0.33333300  0.66666700  0.02437080  1
  S  S1  1  0.66666700  0.33333300  0.52437080  1
  S  S2  1  0.40780318  0.52533561  0.51836282  1
  S  S3  1  0.59219682  0.47466439  0.01836282  1
  S  S4  1  0.47466439  0.88246857  0.51836282  1
  S  S5  1  0.11753143  0.59219682  0.51836282  1
  S  S6  1  0.88246857  0.40780318  0.01836282  1
  S  S7  1  0.52533561  0.11753143  0.01836282  1
  S  S8  1  0.08910341  0.26599986  0.76436263  1
  S  S9  1  0.91089659  0.73400014  0.26436263  1
  S  S10  1  0.73400014  0.82310355  0.76436263  1
  S  S11  1  0.17689645  0.91089659  0.76436263  1
  S  S12  1  0.82310355  0.08910341  0.26436263  1
  S  S13  1  0.26599986  0.17689645  0.26436263  1
loop_
_geom_bond_atom_site_label_1
_geom_bond_atom_site_label_2
_geom_bond_distance
_geom_bond_site_symmetry_2
Pr0 S5 2.892348 1_555
Pr0 S8 2.938707 1_554
Pr0 S13 2.945564 1_555
Pr0 S12 2.970888 1_455
Pr0 S2 3.010930 1_555
Pr0 S6 3.083034 1_455
Pr0 S8 3.093755 1_555
Pr0 S0 3.115242 1_555
Pr1 S6 2.892348 1_556
Pr1 S9 2.938707 1_555
Pr1 S10 2.945564 1_555
Pr1 S11 2.970888 1_655
Pr1 S3 3.010930 1_556
Pr1 S5 3.083034 1_655
Pr1 S9 3.093755 1_556
Pr1 S1 3.115242 1_555
Pr2 S2 2.892344 1_555
Pr2 S10 2.938707 1_554
Pr2 S12 2.945564 1_565
Pr2 S9 2.970888 1_555
Pr2 S4 3.010937 1_555
Pr2 S3 3.083044 1_555
Pr2 S10 3.093755 1_555
Pr2 S0 3.115244 1_555
Pr3 S4 2.892340 1_555
Pr3 S11 2.938707 1_554
Pr3 S9 2.945564 1_455
Pr3 S13 2.970888 1_565
Pr3 S5 3.010929 1_555
Pr3 S7 3.083040 1_565
Pr3 S11 3.093755 1_555
Pr3 S0 3.115235 1_555
Pr4 S7 2.892340 1_556
Pr4 S12 2.938707 1_555
Pr4 S8 2.945564 1_655
Pr4 S10 2.970888 1_545
Pr4 S6 3.010929 1_556
Pr4 S4 3.083040 1_545
Pr4 S12 3.093755 1_556
Pr4 S1 3.115235 1_555
Pr5 S3 2.892344 1_556
Pr5 S13 2.938707 1_555
Pr5 S11 2.945564 1_545
Pr5 S8 2.970888 1_555
Pr5 S7 3.010937 1_556
Pr5 S2 3.083044 1_555
Pr5 S13 3.093755 1_556
Pr5 S1 3.115244 1_555
Ag0 S12 2.441451 1_455
Ag0 S9 2.441451 1_445
Ag0 S13 2.441451 1_555
Ag0 Ag1 2.892819 1_554
Ag0 Ag1 2.892819 1_555
Ag0 Pr3 3.298485 1_545
Ag0 Pr0 3.298485 1_555
Ag0 Pr2 3.298485 1_445
Ag1 S11 2.441451 1_545
Ag1 S8 2.441451 1_555
Ag1 S10 2.441451 1_445
Ag1 Pr4 3.298485 1_455
Ag1 Pr1 3.298485 1_445
Ag1 Pr5 3.298485 1_555
S0 Si0 2.101633 1_554
S1 Si1 2.101633 1_555
S2 Si0 2.138515 1_555
S2 S8 3.365728 1_555
S3 Si1 2.138515 1_555
S3 S9 3.365728 1_555
S4 Si0 2.138516 1_555
S5 Si0 2.138516 1_555
S6 Si1 2.138516 1_555
S7 Si1 2.138516 1_555
S10 S4 3.365734 1_555
S11 S5 3.365725 1_555
S12 S6 3.365725 1_555
S13 S7 3.365734 1_555
