# generated using pymatgen
data_LiMnNbO4
_symmetry_space_group_name_H-M   'P 1'
_cell_length_a   6.20907800
_cell_length_b   6.20909200
_cell_length_c   8.77325700
_cell_angle_alpha   89.99981629
_cell_angle_beta   90.00005381
_cell_angle_gamma   90.00001846
_symmetry_Int_Tables_number   1
_chemical_formula_structural   LiMnNbO4
_chemical_formula_sum   'Li4 Mn4 Nb4 O16'
_cell_volume   338.23306569
_cell_formula_units_Z   4
loop_
 _symmetry_equiv_pos_site_id
 _symmetry_equiv_pos_as_xyz
  1  'x, y, z'
loop_
 _atom_site_type_symbol
 _atom_site_label
 _atom_site_symmetry_multiplicity
 _atom_site_fract_x
 _atom_site_fract_y
 _atom_site_fract_z
 _atom_site_occupancy
  Li  Li0  1  0.00000000  0.22690400  0.00000000  1
  Li  Li1  1  0.00000000  0.77309100  0.50000000  1
  Li  Li2  1  0.22690800  0.00000000  0.25000000  1
  Li  Li3  1  0.77309200  0.99999900  0.74999900  1
  Mn  Mn0  1  0.49999200  0.23825800  0.00001200  1
  Mn  Mn1  1  0.49999600  0.76175200  0.49998700  1
  Mn  Mn2  1  0.23826000  0.50001200  0.24998600  1
  Mn  Mn3  1  0.76174400  0.50000400  0.75002600  1
  Nb  Nb0  1  0.25144700  0.25145500  0.62500900  1
  Nb  Nb1  1  0.25144700  0.74854800  0.87498600  1
  Nb  Nb2  1  0.74855800  0.25145300  0.37499200  1
  Nb  Nb3  1  0.74855700  0.74854900  0.12501000  1
  O  O0  1  0.99568600  0.25038800  0.25155000  1
  O  O1  1  0.99568400  0.74961100  0.24844800  1
  O  O2  1  0.25037600  0.99567400  0.99844900  1
  O  O3  1  0.25037600  0.00432300  0.50155000  1
  O  O4  1  0.74962400  0.99567300  0.00155000  1
  O  O5  1  0.74962400  0.00432300  0.49844800  1
  O  O6  1  0.00431600  0.25038700  0.74844900  1
  O  O7  1  0.00431700  0.74961000  0.75155100  1
  O  O8  1  0.25264000  0.49840900  0.00015000  1
  O  O9  1  0.25264000  0.50158700  0.49984800  1
  O  O10  1  0.49840500  0.25264400  0.24984600  1
  O  O11  1  0.49840700  0.74735500  0.25015200  1
  O  O12  1  0.50159400  0.25264300  0.75015500  1
  O  O13  1  0.50159200  0.74735400  0.74984500  1
  O  O14  1  0.74736000  0.50158500  0.50015100  1
  O  O15  1  0.74735900  0.49840900  0.99985100  1
loop_
_geom_bond_atom_site_label_1
_geom_bond_atom_site_label_2
_geom_bond_distance
_geom_bond_site_symmetry_2
Li0 O2 2.116199 1_544
Li0 O4 2.116202 1_445
Li0 O0 2.211887 1_455
Li0 O6 2.211895 1_554
Li0 O8 2.302742 1_555
Li0 O15 2.302747 1_454
Li1 O3 2.116206 1_565
Li1 O5 2.116207 1_465
Li1 O7 2.211894 1_555
Li1 O1 2.211903 1_455
Li1 O9 2.302738 1_555
Li1 O14 2.302746 1_455
Li2 O0 2.116220 1_455
Li2 O1 2.116232 1_445
Li2 O3 2.211881 1_555
Li2 O2 2.211890 1_544
Li2 O10 2.302722 1_555
Li2 O11 2.302736 1_545
Li3 O6 2.116228 1_665
Li3 O7 2.116237 1_655
Li3 O5 2.211890 1_565
Li3 O4 2.211890 1_556
Li3 O12 2.302727 1_565
Li3 O13 2.302740 1_555
Mn0 O2 2.161261 1_544
Mn0 O4 2.161336 1_545
Mn0 O10 2.193700 1_555
Mn0 O12 2.193901 1_554
Mn0 O8 2.228894 1_555
Mn0 O15 2.228958 1_554
Mn1 O3 2.161223 1_565
Mn1 O5 2.161257 1_565
Mn1 O11 2.193711 1_555
Mn1 O13 2.193913 1_555
Mn1 O9 2.228974 1_555
Mn1 O14 2.229018 1_555
Mn2 O1 2.161150 1_455
Mn2 O0 2.161253 1_455
Mn2 O8 2.193716 1_555
Mn2 O9 2.193943 1_555
Mn2 O11 2.228837 1_555
Mn2 O10 2.228935 1_555
Mn3 O7 2.161167 1_655
Mn3 O6 2.161215 1_655
Mn3 O15 2.193620 1_555
Mn3 O14 2.194058 1_555
Mn3 O13 2.228890 1_555
Mn3 O12 2.228927 1_555
Nb0 O6 1.878145 1_555
Nb0 O3 1.878251 1_555
Nb0 O12 1.902076 1_555
Nb0 O9 1.902077 1_555
Nb1 O7 1.878112 1_555
Nb1 O2 1.878240 1_555
Nb1 O13 1.902043 1_555
Nb1 O8 1.902128 1_556
Nb2 O0 1.878139 1_555
Nb2 O5 1.878220 1_555
Nb2 O14 1.902073 1_555
Nb2 O10 1.902107 1_555
Nb3 O1 1.878112 1_555
Nb3 O4 1.878209 1_555
Nb3 O11 1.902073 1_555
Nb3 O15 1.902113 1_554
