# generated using pymatgen
data_LiMnPO4
_symmetry_space_group_name_H-M   'P 1'
_cell_length_a   5.22909800
_cell_length_b   6.32775000
_cell_length_c   11.19459500
_cell_angle_alpha   90.00000000
_cell_angle_beta   90.00000000
_cell_angle_gamma   90.00000000
_symmetry_Int_Tables_number   1
_chemical_formula_structural   LiMnPO4
_chemical_formula_sum   'Li4 Mn4 P4 O16'
_cell_volume   370.41151560
_cell_formula_units_Z   4
loop_
 _symmetry_equiv_pos_site_id
 _symmetry_equiv_pos_as_xyz
  1  'x, y, z'
loop_
 _atom_site_type_symbol
 _atom_site_label
 _atom_site_symmetry_multiplicity
 _atom_site_fract_x
 _atom_site_fract_y
 _atom_site_fract_z
 _atom_site_occupancy
  Li  Li0  1  0.25083900  0.52028900  0.16765600  1
  Li  Li1  1  0.75083900  0.02028900  0.33234400  1
  Li  Li2  1  0.25083900  0.97971100  0.66765600  1
  Li  Li3  1  0.75083900  0.47971100  0.83234400  1
  Mn  Mn0  1  0.74601000  0.79423300  0.08067000  1
  Mn  Mn1  1  0.24601000  0.29423300  0.41933000  1
  Mn  Mn2  1  0.74601000  0.70576700  0.58067000  1
  Mn  Mn3  1  0.24601000  0.20576700  0.91933000  1
  P  P0  1  0.24957800  0.02241400  0.17909600  1
  P  P1  1  0.74957800  0.52241400  0.32090400  1
  P  P2  1  0.24957800  0.47758600  0.67909600  1
  P  P3  1  0.74957800  0.97758600  0.82090400  1
  O  O0  1  0.18525700  0.22116900  0.10091700  1
  O  O1  1  0.13773100  0.82122400  0.11676700  1
  O  O2  1  0.63202100  0.54659300  0.19388400  1
  O  O3  1  0.54441400  0.00057300  0.18744600  1
  O  O4  1  0.04441400  0.50057300  0.31255400  1
  O  O5  1  0.13202100  0.04659300  0.30611600  1
  O  O6  1  0.63773100  0.32122400  0.38323300  1
  O  O7  1  0.68525700  0.72116900  0.39908300  1
  O  O8  1  0.18525700  0.27883100  0.60091700  1
  O  O9  1  0.13773100  0.67877600  0.61676700  1
  O  O10  1  0.63202100  0.95340700  0.69388400  1
  O  O11  1  0.54441400  0.49942700  0.68744600  1
  O  O12  1  0.04441400  0.99942700  0.81255400  1
  O  O13  1  0.13202100  0.45340700  0.80611600  1
  O  O14  1  0.63773100  0.17877600  0.88323300  1
  O  O15  1  0.68525700  0.77883100  0.89908300  1
loop_
_geom_bond_atom_site_label_1
_geom_bond_atom_site_label_2
_geom_bond_distance
_geom_bond_site_symmetry_2
Li0 O4 1.952391 1_555
Li0 O2 2.021611 1_555
Li0 O0 2.063568 1_555
Li0 O1 2.073762 1_555
Li1 O3 1.952391 1_555
Li1 O5 2.021611 1_655
Li1 O7 2.063568 1_545
Li1 O6 2.073762 1_555
Li2 O12 1.952391 1_555
Li2 O10 2.021611 1_555
Li2 O8 2.063568 1_565
Li2 O9 2.073762 1_555
Li3 O11 1.952391 1_555
Li3 O13 2.021611 1_655
Li3 O15 2.063568 1_555
Li3 O14 2.073762 1_555
Mn0 O15 2.059774 1_554
Mn0 O3 2.060293 1_565
Mn0 O1 2.094800 1_655
Mn0 O2 2.101679 1_555
Mn1 O8 2.059774 1_555
Mn1 O4 2.060293 1_555
Mn1 O6 2.094800 1_555
Mn1 O5 2.101679 1_555
Mn2 O7 2.059774 1_555
Mn2 O11 2.060293 1_555
Mn2 O9 2.094800 1_655
Mn2 O10 2.101679 1_555
Mn3 O0 2.059774 1_556
Mn3 O12 2.060293 1_545
Mn3 O14 2.094800 1_555
Mn3 O13 2.101679 1_555
O0 P0 1.568696 1_555
O1 P0 1.565134 1_565
O2 P1 1.556660 1_555
O3 P0 1.550728 1_555
O4 P1 1.550728 1_455
O5 P0 1.556660 1_555
O6 P1 1.565134 1_555
O7 P1 1.568696 1_555
O8 P2 1.568696 1_555
O9 P2 1.565134 1_555
O10 P3 1.556660 1_555
O11 P2 1.550728 1_555
O12 P3 1.550728 1_455
O13 P2 1.556660 1_555
O14 P3 1.565134 1_545
O15 P3 1.568696 1_555
