# generated using pymatgen
data_K2Sn2S5
_symmetry_space_group_name_H-M   'P 1'
_cell_length_a   6.80468021
_cell_length_b   6.80468080
_cell_length_c   11.68395660
_cell_angle_alpha   75.06013020
_cell_angle_beta   75.06012756
_cell_angle_gamma   70.34908384
_symmetry_Int_Tables_number   1
_chemical_formula_structural   K2Sn2S5
_chemical_formula_sum   'K4 Sn4 S10'
_cell_volume   483.49625581
_cell_formula_units_Z   2
loop_
 _symmetry_equiv_pos_site_id
 _symmetry_equiv_pos_as_xyz
  1  'x, y, z'
loop_
 _atom_site_type_symbol
 _atom_site_label
 _atom_site_symmetry_multiplicity
 _atom_site_fract_x
 _atom_site_fract_y
 _atom_site_fract_z
 _atom_site_occupancy
  K  K0  1  0.55429665  0.88431527  0.18317508  1
  K  K1  1  0.11568473  0.44570335  0.31682492  1
  K  K2  1  0.44570335  0.11568473  0.81682492  1
  K  K3  1  0.88431527  0.55429665  0.68317508  1
  Sn  Sn0  1  0.93781471  0.24997857  0.05780178  1
  Sn  Sn1  1  0.75002143  0.06218529  0.44219822  1
  Sn  Sn2  1  0.06218529  0.75002143  0.94219822  1
  Sn  Sn3  1  0.24997857  0.93781471  0.55780178  1
  S  S0  1  0.25235512  0.35481242  0.03789024  1
  S  S1  1  0.64518758  0.74764488  0.46210976  1
  S  S2  1  0.74764488  0.64518758  0.96210976  1
  S  S3  1  0.35481242  0.25235512  0.53789024  1
  S  S4  1  0.68364252  0.31635748  0.25000000  1
  S  S5  1  0.31635748  0.68364252  0.75000000  1
  S  S6  1  0.88779870  0.15032078  0.88250976  1
  S  S7  1  0.84967922  0.11220130  0.61749024  1
  S  S8  1  0.15032078  0.88779870  0.38250976  1
  S  S9  1  0.11220130  0.84967922  0.11749024  1
loop_
_geom_bond_atom_site_label_1
_geom_bond_atom_site_label_2
_geom_bond_distance
_geom_bond_site_symmetry_2
K0 S8 3.108863 1_555
K0 S2 3.166257 1_554
K0 S1 3.310372 1_555
K0 S9 3.384534 1_555
K0 S0 3.453257 1_565
K0 S4 3.582090 1_555
K0 S9 3.611942 1_655
K0 S4 3.647682 1_565
K1 S9 3.108864 1_555
K1 S3 3.166257 1_555
K1 S0 3.310372 1_555
K1 S8 3.384534 1_555
K1 S1 3.453256 1_455
K1 S4 3.582090 1_555
K1 S8 3.611942 1_545
K1 S4 3.647682 1_455
K2 S7 3.108863 1_555
K2 S0 3.166257 1_556
K2 S3 3.310372 1_555
K2 S6 3.384534 1_555
K2 S2 3.453257 1_545
K2 S5 3.582090 1_555
K2 S6 3.611942 1_455
K2 S5 3.647682 1_545
K3 S6 3.108864 1_555
K3 S1 3.166257 1_555
K3 S2 3.310372 1_555
K3 S7 3.384534 1_555
K3 S3 3.453256 1_655
K3 S5 3.582090 1_555
K3 S7 3.611942 1_565
K3 S5 3.647682 1_655
S0 Sn0 2.414269 1_455
S0 Sn2 2.647994 1_554
S1 Sn1 2.414269 1_565
S1 Sn3 2.647994 1_555
S2 Sn2 2.414269 1_655
S2 Sn0 2.647994 1_556
S3 Sn3 2.414269 1_545
S3 Sn1 2.647994 1_555
S4 Sn0 2.496645 1_555
S4 Sn1 2.496645 1_555
S5 Sn2 2.496645 1_555
S5 Sn3 2.496645 1_555
S6 Sn0 2.449737 1_556
S6 Sn2 2.566596 1_645
S6 S7 3.255190 1_555
S7 Sn1 2.449737 1_555
S7 Sn3 2.566595 1_645
S8 Sn3 2.449737 1_555
S8 Sn1 2.566595 1_465
S8 S9 3.255190 1_555
S9 Sn2 2.449737 1_554
S9 Sn0 2.566596 1_465
