# generated using pymatgen
data_Li2FeP2O7
_symmetry_space_group_name_H-M   'P 1'
_cell_length_a   9.87767100
_cell_length_b   9.94424100
_cell_length_c   11.23003050
_cell_angle_alpha   77.92847203
_cell_angle_beta   90.00000000
_cell_angle_gamma   90.00000000
_symmetry_Int_Tables_number   1
_chemical_formula_structural   Li2FeP2O7
_chemical_formula_sum   'Li16 Fe8 P16 O56'
_cell_volume   1078.68820855
_cell_formula_units_Z   8
loop_
 _symmetry_equiv_pos_site_id
 _symmetry_equiv_pos_as_xyz
  1  'x, y, z'
loop_
 _atom_site_type_symbol
 _atom_site_label
 _atom_site_symmetry_multiplicity
 _atom_site_fract_x
 _atom_site_fract_y
 _atom_site_fract_z
 _atom_site_occupancy
  Li  Li0  1  0.72070400  0.11106100  0.55353400  1
  Li  Li1  1  0.42389400  0.16802800  0.45612500  1
  Li  Li2  1  0.10693000  0.08598100  0.97195700  1
  Li  Li3  1  0.90977800  0.34419700  0.04267200  1
  Li  Li4  1  0.40977800  0.15580300  0.95732800  1
  Li  Li5  1  0.60693000  0.41401900  0.02804300  1
  Li  Li6  1  0.92389400  0.33197200  0.54387500  1
  Li  Li7  1  0.22070400  0.38893900  0.44646600  1
  Li  Li8  1  0.77929600  0.61106100  0.55353400  1
  Li  Li9  1  0.07610600  0.66802800  0.45612500  1
  Li  Li10  1  0.39307000  0.58598100  0.97195700  1
  Li  Li11  1  0.59022200  0.84419700  0.04267200  1
  Li  Li12  1  0.09022200  0.65580300  0.95732800  1
  Li  Li13  1  0.89307000  0.91401900  0.02804300  1
  Li  Li14  1  0.57610600  0.83197200  0.54387500  1
  Li  Li15  1  0.27929600  0.88893900  0.44646600  1
  Fe  Fe0  1  0.92434000  0.20088200  0.32406100  1
  Fe  Fe1  1  0.21191000  0.25374600  0.17856000  1
  Fe  Fe2  1  0.71191000  0.24625400  0.82144000  1
  Fe  Fe3  1  0.42434000  0.29911800  0.67593900  1
  Fe  Fe4  1  0.57566000  0.70088200  0.32406100  1
  Fe  Fe5  1  0.28809000  0.75374600  0.17856000  1
  Fe  Fe6  1  0.78809000  0.74625400  0.82144000  1
  Fe  Fe7  1  0.07566000  0.79911800  0.67593900  1
  P  P0  1  0.45330100  0.02608700  0.23864900  1
  P  P1  1  0.70426900  0.11926200  0.10804100  1
  P  P2  1  0.93151000  0.05901000  0.75675400  1
  P  P3  1  0.15015800  0.12277200  0.57271800  1
  P  P4  1  0.65015800  0.37722800  0.42728200  1
  P  P5  1  0.43151000  0.44099000  0.24324600  1
  P  P6  1  0.04669900  0.52608700  0.23864900  1
  P  P7  1  0.20426900  0.38073800  0.89195900  1
  P  P8  1  0.79573100  0.61926200  0.10804100  1
  P  P9  1  0.95330100  0.47391300  0.76135100  1
  P  P10  1  0.56849000  0.55901000  0.75675400  1
  P  P11  1  0.34984200  0.62277200  0.57271800  1
  P  P12  1  0.84984200  0.87722800  0.42728200  1
  P  P13  1  0.06849000  0.94099000  0.24324600  1
  P  P14  1  0.29573100  0.88073800  0.89195900  1
  P  P15  1  0.54669900  0.97391300  0.76135100  1
  O  O0  1  0.41496600  0.02301200  0.37027100  1
  O  O1  1  0.83962400  0.02404200  0.44769100  1
  O  O2  1  0.08724900  0.08620800  0.26983800  1
  O  O3  1  0.36347400  0.11874700  0.14395900  1
  O  O4  1  0.60187200  0.09602100  0.22409200  1
  O  O5  1  0.82900800  0.18360400  0.15417000  1
  O  O6  1  0.63429800  0.22275700  0.00146300  1
  O  O7  1  0.27591000  0.01891300  0.92526000  1
  O  O8  1  0.07887000  0.11306000  0.70450900  1
  O  O9  1  0.93505000  0.06328700  0.88988200  1
  O  O10  1  0.53363900  0.12049000  0.78956400  1
  O  O11  1  0.28909300  0.18867800  0.58270500  1
  O  O12  1  0.82584900  0.16384400  0.68870100  1
  O  O13  1  0.06295900  0.22324100  0.48084200  1
  O  O14  1  0.56295900  0.27675900  0.51915800  1
  O  O15  1  0.32584900  0.33615600  0.31129900  1
  O  O16  1  0.78909300  0.31132200  0.41729500  1
  O  O17  1  0.03363900  0.37951000  0.21043600  1
  O  O18  1  0.57887000  0.38694000  0.29549100  1
  O  O19  1  0.43505000  0.43671300  0.11011800  1
  O  O20  1  0.77591000  0.48108700  0.07474000  1
  O  O21  1  0.13429800  0.27724300  0.99853700  1
  O  O22  1  0.32900800  0.31639600  0.84583000  1
  O  O23  1  0.10187200  0.40397900  0.77590800  1
  O  O24  1  0.58724900  0.41379200  0.73016200  1
  O  O25  1  0.86347400  0.38125300  0.85604100  1
  O  O26  1  0.08503400  0.52301200  0.37027100  1
  O  O27  1  0.33962400  0.47595800  0.55230900  1
  O  O28  1  0.66037600  0.52404200  0.44769100  1
  O  O29  1  0.91496600  0.47698800  0.62972900  1
  O  O30  1  0.13652600  0.61874700  0.14395900  1
  O  O31  1  0.41275100  0.58620800  0.26983800  1
  O  O32  1  0.89812800  0.59602100  0.22409200  1
  O  O33  1  0.67099200  0.68360400  0.15417000  1
  O  O34  1  0.86570200  0.72275700  0.00146300  1
  O  O35  1  0.22409000  0.51891300  0.92526000  1
  O  O36  1  0.56495000  0.56328700  0.88988200  1
  O  O37  1  0.42113000  0.61306000  0.70450900  1
  O  O38  1  0.96636100  0.62049000  0.78956400  1
  O  O39  1  0.21090700  0.68867800  0.58270500  1
  O  O40  1  0.67415100  0.66384400  0.68870100  1
  O  O41  1  0.43704100  0.72324100  0.48084200  1
  O  O42  1  0.93704100  0.77675900  0.51915800  1
  O  O43  1  0.17415100  0.83615600  0.31129900  1
  O  O44  1  0.71090700  0.81132200  0.41729500  1
  O  O45  1  0.46636100  0.87951000  0.21043600  1
  O  O46  1  0.06495000  0.93671300  0.11011800  1
  O  O47  1  0.92113000  0.88694000  0.29549100  1
  O  O48  1  0.72409000  0.98108700  0.07474000  1
  O  O49  1  0.36570200  0.77724300  0.99853700  1
  O  O50  1  0.17099200  0.81639600  0.84583000  1
  O  O51  1  0.39812800  0.90397900  0.77590800  1
  O  O52  1  0.63652600  0.88125300  0.85604100  1
  O  O53  1  0.91275100  0.91379200  0.73016200  1
  O  O54  1  0.16037600  0.97595800  0.55230900  1
  O  O55  1  0.58503400  0.97698800  0.62972900  1
loop_
_geom_bond_atom_site_label_1
_geom_bond_atom_site_label_2
_geom_bond_distance
_geom_bond_site_symmetry_2
Li0 O55 1.956643 1_545
Li0 O1 1.992899 1_555
Li0 O12 1.997881 1_555
Li0 O14 2.241844 1_555
Li0 O16 2.342775 1_555
Li1 O0 1.896963 1_555
Li1 O14 1.969055 1_555
Li1 O11 1.989437 1_555
Li1 O15 2.289326 1_555
Li2 O7 1.911045 1_555
Li2 O46 1.954300 1_546
Li2 O9 1.967208 1_455
Li2 O21 2.004263 1_555
Li3 O5 1.979469 1_555
Li3 O20 1.984004 1_555
Li3 O25 2.101101 1_554
Li3 O17 2.333735 1_655
Li3 O21 2.396942 1_654
Li4 O22 1.979469 1_555
Li4 O7 1.984004 1_555
Li4 O3 2.101101 1_556
Li4 O10 2.333735 1_555
Li4 O6 2.396942 1_556
Li5 O20 1.911045 1_555
Li5 O36 1.954300 1_554
Li5 O19 1.967208 1_555
Li5 O6 2.004263 1_555
Li6 O29 1.896963 1_555
Li6 O13 1.969055 1_655
Li6 O16 1.989437 1_555
Li6 O12 2.289326 1_555
Li7 O26 1.956643 1_555
Li7 O27 1.992899 1_555
Li7 O15 1.997881 1_555
Li7 O13 2.241844 1_555
Li7 O11 2.342775 1_555
Li8 O29 1.956643 1_555
Li8 O28 1.992899 1_555
Li8 O40 1.997881 1_555
Li8 O42 2.241844 1_555
Li8 O44 2.342775 1_555
Li9 O26 1.896963 1_555
Li9 O42 1.969055 1_455
Li9 O39 1.989437 1_555
Li9 O43 2.289326 1_555
Li10 O35 1.911045 1_555
Li10 O19 1.954300 1_556
Li10 O36 1.967208 1_555
Li10 O49 2.004263 1_555
Li11 O33 1.979469 1_555
Li11 O48 1.984004 1_555
Li11 O52 2.101101 1_554
Li11 O45 2.333735 1_555
Li11 O49 2.396942 1_554
Li12 O50 1.979469 1_555
Li12 O35 1.984004 1_555
Li12 O30 2.101101 1_556
Li12 O38 2.333735 1_455
Li12 O34 2.396942 1_456
Li13 O48 1.911045 1_555
Li13 O9 1.954300 1_564
Li13 O46 1.967208 1_655
Li13 O34 2.004263 1_555
Li14 O55 1.896963 1_555
Li14 O41 1.969055 1_555
Li14 O44 1.989437 1_555
Li14 O40 2.289326 1_555
Li15 O0 1.956643 1_565
Li15 O54 1.992899 1_555
Li15 O43 1.997881 1_555
Li15 O41 2.241844 1_555
Li15 O39 2.342775 1_555
Fe0 O2 2.133311 1_655
Fe0 O16 2.137297 1_555
Fe0 O5 2.166417 1_555
Fe0 O1 2.167732 1_555
Fe0 O17 2.236304 1_655
Fe0 O13 2.277692 1_655
Fe1 O3 2.100639 1_555
Fe1 O21 2.128816 1_554
Fe1 O2 2.151363 1_555
Fe1 O15 2.161310 1_555
Fe1 O17 2.231645 1_555
Fe1 O19 2.859085 1_555
Fe2 O25 2.100639 1_555
Fe2 O6 2.128816 1_556
Fe2 O24 2.151363 1_555
Fe2 O12 2.161310 1_555
Fe2 O10 2.231645 1_555
Fe2 O9 2.859085 1_555
Fe3 O24 2.133311 1_555
Fe3 O11 2.137297 1_555
Fe3 O22 2.166417 1_555
Fe3 O27 2.167732 1_555
Fe3 O10 2.236304 1_555
Fe3 O14 2.277692 1_555
Fe4 O31 2.133311 1_555
Fe4 O44 2.137297 1_555
Fe4 O33 2.166417 1_555
Fe4 O28 2.167732 1_555
Fe4 O45 2.236304 1_555
Fe4 O41 2.277692 1_555
Fe5 O30 2.100639 1_555
Fe5 O49 2.128816 1_554
Fe5 O31 2.151363 1_555
Fe5 O43 2.161310 1_555
Fe5 O45 2.231645 1_555
Fe5 O46 2.859085 1_555
Fe6 O52 2.100639 1_555
Fe6 O34 2.128816 1_556
Fe6 O53 2.151363 1_555
Fe6 O40 2.161310 1_555
Fe6 O38 2.231645 1_555
Fe6 O36 2.859085 1_555
Fe7 O53 2.133311 1_455
Fe7 O39 2.137297 1_555
Fe7 O50 2.166417 1_555
Fe7 O54 2.167732 1_555
Fe7 O38 2.236304 1_455
Fe7 O42 2.277692 1_455
O0 P0 1.519951 1_555
O1 P12 1.527789 1_545
O2 P13 1.545724 1_545
O3 P0 1.535331 1_555
O4 P0 1.617551 1_555
O4 P1 1.627553 1_555
O5 P1 1.527914 1_555
O6 P1 1.566585 1_555
O7 P14 1.510336 1_545
O8 P2 1.618616 1_455
O8 P3 1.623525 1_555
O9 P2 1.504908 1_555
O10 P15 1.560376 1_545
O11 P3 1.534995 1_555
O12 P2 1.557849 1_555
O13 P3 1.540599 1_555
O14 P4 1.540599 1_555
O15 P5 1.557849 1_555
O16 P4 1.534995 1_555
O17 P6 1.560376 1_555
O18 P5 1.618616 1_555
O18 P4 1.623525 1_555
O19 P5 1.504908 1_555
O20 P8 1.510336 1_555
O21 P7 1.566585 1_555
O22 P7 1.527914 1_555
O23 P9 1.617551 1_455
O23 P7 1.627553 1_555
O24 P10 1.545724 1_555
O25 P9 1.535331 1_555
O26 P6 1.519951 1_555
O27 P11 1.527789 1_555
O28 P4 1.527789 1_555
O29 P9 1.519951 1_555
O30 P6 1.535331 1_555
O31 P5 1.545724 1_555
O32 P6 1.617551 1_655
O32 P8 1.627553 1_555
O33 P8 1.527914 1_555
O34 P8 1.566585 1_555
O35 P7 1.510336 1_555
O36 P10 1.504908 1_555
O37 P10 1.618616 1_555
O37 P11 1.623525 1_555
O38 P9 1.560376 1_555
O39 P11 1.534995 1_555
O40 P10 1.557849 1_555
O41 P11 1.540599 1_555
O42 P12 1.540599 1_555
O43 P13 1.557849 1_555
O44 P12 1.534995 1_555
O45 P0 1.560376 1_565
O46 P13 1.504908 1_555
O47 P13 1.618616 1_655
O47 P12 1.623525 1_555
O48 P1 1.510336 1_565
O49 P14 1.566585 1_555
O50 P14 1.527914 1_555
O51 P15 1.617551 1_555
O51 P14 1.627553 1_555
O52 P15 1.535331 1_555
O53 P2 1.545724 1_565
O54 P3 1.527789 1_565
O55 P15 1.519951 1_555
