# generated using pymatgen
data_V3OF11
_symmetry_space_group_name_H-M   'P 1'
_cell_length_a   7.32590000
_cell_length_b   5.99007629
_cell_length_c   5.42947933
_cell_angle_alpha   97.52179481
_cell_angle_beta   99.24876578
_cell_angle_gamma   94.54921316
_symmetry_Int_Tables_number   1
_chemical_formula_structural   V3OF11
_chemical_formula_sum   'V3 O1 F11'
_cell_volume   231.90989310
_cell_formula_units_Z   1
loop_
 _symmetry_equiv_pos_site_id
 _symmetry_equiv_pos_as_xyz
  1  'x, y, z'
loop_
 _atom_site_type_symbol
 _atom_site_label
 _atom_site_symmetry_multiplicity
 _atom_site_fract_x
 _atom_site_fract_y
 _atom_site_fract_z
 _atom_site_occupancy
  V  V0  1  0.05805200  0.02899000  0.98816100  1
  V  V1  1  0.62630200  0.37081200  0.17033900  1
  V  V2  1  0.39635900  0.63352600  0.84035400  1
  O  O0  1  0.33246700  0.15957000  0.98328600  1
  F  F0  1  0.87405900  0.03626500  0.72387600  1
  F  F1  1  0.54635600  0.25361100  0.40104300  1
  F  F2  1  0.88582700  0.22283900  0.10514000  1
  F  F3  1  0.63618900  0.45885900  0.86568000  1
  F  F4  1  0.14023500  0.45392700  0.73338100  1
  F  F5  1  0.86508200  0.55834900  0.28980100  1
  F  F6  1  0.37248300  0.52296900  0.15539700  1
  F  F7  1  0.12781200  0.79605100  0.87819400  1
  F  F8  1  0.46677300  0.71385400  0.57884100  1
  F  F9  1  0.61679400  0.82435200  0.00722200  1
  F  F10  1  0.07146800  0.95892400  0.26338600  1
loop_
_geom_bond_atom_site_label_1
_geom_bond_atom_site_label_2
_geom_bond_distance
_geom_bond_site_symmetry_2
O0 V0 2.104056 1_555
O0 V1 2.407285 1_556
F0 V0 1.811564 1_655
F0 F2 2.205284 1_556
F1 V1 1.675027 1_555
F1 O0 2.510052 1_554
F1 F6 2.519516 1_555
F2 V0 1.908014 1_654
F2 F5 2.153425 1_555
F2 V1 2.219742 1_555
F3 V1 1.811198 1_556
F3 V2 2.110010 1_555
F3 F9 2.246754 1_556
F3 F5 2.590491 1_556
F3 O0 2.948924 1_555
F4 V2 2.044811 1_555
F4 F7 2.111173 1_555
F4 F6 2.589054 1_556
F4 O0 2.709107 1_555
F5 V1 1.968610 1_555
F6 V2 1.941496 1_554
F6 V1 2.129452 1_555
F6 O0 2.230638 1_554
F6 F8 2.397145 1_555
F6 F9 2.727690 1_555
F7 V0 1.599274 1_565
F7 V2 2.289504 1_555
F7 O0 2.489338 1_565
F8 V2 1.699591 1_555
F8 F9 2.390733 1_556
F9 V2 1.923808 1_554
F10 V0 1.594477 1_564
F10 F2 2.325507 1_465
