# generated using pymatgen
data_Li3Mn(PO4)2
_symmetry_space_group_name_H-M   'P 1'
_cell_length_a   4.74578900
_cell_length_b   5.08300123
_cell_length_c   13.78888202
_cell_angle_alpha   98.65321704
_cell_angle_beta   89.85693162
_cell_angle_gamma   117.78025213
_symmetry_Int_Tables_number   1
_chemical_formula_structural   Li3Mn(PO4)2
_chemical_formula_sum   'Li6 Mn2 P4 O16'
_cell_volume   290.06832421
_cell_formula_units_Z   2
loop_
 _symmetry_equiv_pos_site_id
 _symmetry_equiv_pos_as_xyz
  1  'x, y, z'
loop_
 _atom_site_type_symbol
 _atom_site_label
 _atom_site_symmetry_multiplicity
 _atom_site_fract_x
 _atom_site_fract_y
 _atom_site_fract_z
 _atom_site_occupancy
  Li  Li0  1  0.67859300  0.01261600  0.66075600  1
  Li  Li1  1  0.65485800  0.01053800  0.16127800  1
  Li  Li2  1  0.34401600  0.99302000  0.83874000  1
  Li  Li3  1  0.32118500  0.98865600  0.34087900  1
  Li  Li4  1  0.01908400  0.50112900  0.74997200  1
  Li  Li5  1  0.97918200  0.50122900  0.25043600  1
  Mn  Mn0  1  0.00080500  0.00440200  0.49948800  1
  Mn  Mn1  1  0.99958600  0.00063500  0.00026900  1
  P  P0  1  0.65232200  0.54806400  0.88358900  1
  P  P1  1  0.66126900  0.54989100  0.38349100  1
  P  P2  1  0.33860900  0.45694900  0.61598200  1
  P  P3  1  0.34680900  0.45293900  0.11711500  1
  O  O0  1  0.77629200  0.36169600  0.85949700  1
  O  O1  1  0.30327400  0.36362700  0.35982700  1
  O  O2  1  0.43073700  0.28484700  0.96791700  1
  O  O3  1  0.78791400  0.28646000  0.46772100  1
  O  O4  1  0.47207300  0.74798400  0.79419900  1
  O  O5  1  0.32465200  0.20761500  0.58262100  1
  O  O6  1  0.86310700  0.74910100  0.29424300  1
  O  O7  1  0.04541700  0.20421300  0.08367800  1
  O  O8  1  0.95407700  0.79777700  0.91654300  1
  O  O9  1  0.13618000  0.25740900  0.70508500  1
  O  O10  1  0.67565700  0.79932000  0.41678500  1
  O  O11  1  0.52669500  0.25270200  0.20657400  1
  O  O12  1  0.21271500  0.72093100  0.53137400  1
  O  O13  1  0.56900500  0.71594000  0.03299400  1
  O  O14  1  0.69636200  0.64205200  0.64016600  1
  O  O15  1  0.22220900  0.63865300  0.14119600  1
loop_
_geom_bond_atom_site_label_1
_geom_bond_atom_site_label_2
_geom_bond_distance
_geom_bond_site_symmetry_2
Li0 O14 1.903315 1_545
Li0 O9 1.974014 1_655
Li0 Li4 2.375041 1_655
Li0 O4 2.379601 1_545
Li0 O12 2.537208 1_545
Li0 O5 2.616688 1_555
Li1 O11 1.655257 1_555
Li1 O15 2.023147 1_545
Li1 O7 2.038563 1_655
Li1 O13 2.043317 1_545
Li2 O4 1.664754 1_555
Li2 O0 2.014997 1_565
Li2 O8 2.039347 1_455
Li2 O2 2.044985 1_565
Li3 O1 1.925956 1_565
Li3 O6 1.981427 1_455
Li3 Li5 2.379064 1_455
Li3 O11 2.387648 1_565
Li3 O3 2.520686 1_565
Li3 O10 2.583161 1_555
Li3 Mn0 2.673106 1_565
Li4 O9 1.623543 1_555
Li4 O0 1.913871 1_455
Li4 O4 1.956971 1_555
Li5 O6 1.634646 1_555
Li5 O15 1.908936 1_655
Li5 O11 1.954700 1_555
Mn0 O5 1.707555 1_555
Mn0 O10 1.708766 1_445
Mn0 O3 2.193077 1_455
Mn0 O12 2.196464 1_545
Mn1 O7 1.369011 1_655
Mn1 O8 1.370459 1_544
Mn1 O2 1.976529 1_654
Mn1 O13 1.977070 1_545
O0 P0 1.333322 1_555
O0 O2 2.154831 1_555
O1 P1 1.516488 1_555
O1 O10 2.116562 1_555
O1 O3 2.759034 1_455
O1 O12 2.916902 1_555
O2 P0 1.843502 1_555
O2 P3 2.214781 1_556
O3 P1 2.173661 1_555
O3 O5 2.618527 1_555
O4 P0 2.115691 1_555
O5 P2 1.252471 1_555
O5 O9 1.946918 1_555
O6 P1 1.709460 1_555
O7 P3 1.413883 1_555
O8 P0 1.415516 1_555
O9 P2 1.709378 1_555
O10 P1 1.251869 1_555
O10 O6 1.945783 1_555
O10 O3 2.270956 1_565
O10 O12 2.615022 1_555
O11 P3 2.116450 1_555
O12 P2 2.177237 1_555
O12 O3 2.233200 1_455
O12 O5 2.269835 1_565
O12 O14 2.768184 1_455
O13 P3 1.841458 1_555
O13 O2 2.026894 1_554
O13 O15 2.156497 1_555
O13 P0 2.215872 1_554
O14 P2 1.516043 1_555
O14 O5 2.113381 1_555
O14 O3 2.922913 1_555
O15 P3 1.332691 1_555
