# generated using pymatgen
data_Tm2AgOs
_symmetry_space_group_name_H-M   'P 1'
_cell_length_a   4.85053258
_cell_length_b   4.85053258
_cell_length_c   4.85053258
_cell_angle_alpha   60.00000000
_cell_angle_beta   60.00000000
_cell_angle_gamma   60.00000000
_symmetry_Int_Tables_number   1
_chemical_formula_structural   Tm2AgOs
_chemical_formula_sum   'Tm2 Ag1 Os1'
_cell_volume   80.69623643
_cell_formula_units_Z   1
loop_
 _symmetry_equiv_pos_site_id
 _symmetry_equiv_pos_as_xyz
  1  'x, y, z'
loop_
 _atom_site_type_symbol
 _atom_site_label
 _atom_site_symmetry_multiplicity
 _atom_site_fract_x
 _atom_site_fract_y
 _atom_site_fract_z
 _atom_site_occupancy
  Tm  Tm0  1  0.00000000  0.00000000  -0.00000000  1
  Tm  Tm1  1  0.49999900  0.49999900  0.49999900  1
  Ag  Ag0  1  0.25000000  0.25000000  0.25000000  1
  Os  Os0  1  0.74999900  0.74999900  0.74999900  1
loop_
_geom_bond_atom_site_label_1
_geom_bond_atom_site_label_2
_geom_bond_distance
_geom_bond_site_symmetry_2
Tm0 Tm1 3.429838 1_554
Tm0 Tm1 3.429838 1_455
Tm0 Tm1 3.429838 1_545
Tm0 Tm1 3.429851 1_544
Tm0 Tm1 3.429851 1_445
Tm0 Tm1 3.429851 1_454
Ag0 Tm1 2.970321 1_555
Ag0 Tm0 2.970332 1_565
Ag0 Tm0 2.970332 1_555
Ag0 Tm0 2.970332 1_655
Ag0 Tm0 2.970332 1_556
Ag0 Tm1 2.970336 1_455
Ag0 Tm1 2.970336 1_554
Ag0 Tm1 2.970336 1_545
Ag0 Os0 3.429838 1_554
Ag0 Os0 3.429838 1_545
Ag0 Os0 3.429838 1_455
Ag0 Os0 3.429851 1_544
Ag0 Os0 3.429851 1_445
Ag0 Os0 3.429851 1_454
Os0 Tm0 2.970328 1_665
Os0 Tm0 2.970328 1_656
Os0 Tm0 2.970328 1_566
Os0 Tm1 2.970332 1_565
Os0 Tm1 2.970332 1_655
Os0 Tm1 2.970332 1_556
Os0 Tm1 2.970332 1_555
Os0 Tm0 2.970344 1_666
