# generated using pymatgen
data_Li2CdPd
_symmetry_space_group_name_H-M   'P 1'
_cell_length_a   4.38041101
_cell_length_b   4.38041101
_cell_length_c   4.38041101
_cell_angle_alpha   60.00000000
_cell_angle_beta   60.00000000
_cell_angle_gamma   60.00000000
_symmetry_Int_Tables_number   1
_chemical_formula_structural   Li2CdPd
_chemical_formula_sum   'Li2 Cd1 Pd1'
_cell_volume   59.43326484
_cell_formula_units_Z   1
loop_
 _symmetry_equiv_pos_site_id
 _symmetry_equiv_pos_as_xyz
  1  'x, y, z'
loop_
 _atom_site_type_symbol
 _atom_site_label
 _atom_site_symmetry_multiplicity
 _atom_site_fract_x
 _atom_site_fract_y
 _atom_site_fract_z
 _atom_site_occupancy
  Li  Li0  1  0.50000000  0.50000000  0.50000000  1
  Li  Li1  1  -0.00000000  0.00000000  -0.00000000  1
  Cd  Cd0  1  0.25000000  0.25000000  0.25000000  1
  Pd  Pd0  1  0.75000100  0.75000100  0.75000100  1
loop_
_geom_bond_atom_site_label_1
_geom_bond_atom_site_label_2
_geom_bond_distance
_geom_bond_site_symmetry_2
Li0 Pd0 2.682439 1_554
Li0 Pd0 2.682439 1_455
Li0 Pd0 2.682439 1_545
Li0 Pd0 2.682454 1_555
Li0 Li1 3.097418 1_556
Li0 Li1 3.097418 1_565
Li0 Li1 3.097418 1_566
Li0 Li1 3.097418 1_656
Li0 Li1 3.097418 1_665
Li0 Li1 3.097418 1_655
Li1 Pd0 2.682432 1_444
Li1 Pd0 2.682447 1_544
Li1 Pd0 2.682447 1_445
Li1 Pd0 2.682447 1_454
Cd0 Li0 2.682443 1_545
Cd0 Li0 2.682443 1_455
Cd0 Li1 2.682443 1_655
Cd0 Li0 2.682443 1_555
Cd0 Li1 2.682443 1_555
Cd0 Li1 2.682443 1_556
Cd0 Li0 2.682443 1_554
Cd0 Li1 2.682443 1_565
Cd0 Pd0 3.097412 1_445
Cd0 Pd0 3.097412 1_454
Cd0 Pd0 3.097412 1_544
Cd0 Pd0 3.097425 1_455
Cd0 Pd0 3.097425 1_545
Cd0 Pd0 3.097425 1_554
