# generated using pymatgen
data_Li7Co(O2F)2
_symmetry_space_group_name_H-M   'P 1'
_cell_length_a   5.34668400
_cell_length_b   5.71678971
_cell_length_c   10.24509343
_cell_angle_alpha   105.47730580
_cell_angle_beta   86.06915246
_cell_angle_gamma   114.78460657
_symmetry_Int_Tables_number   1
_chemical_formula_structural   Li7Co(O2F)2
_chemical_formula_sum   'Li14 Co2 O8 F4'
_cell_volume   273.65998229
_cell_formula_units_Z   2
loop_
 _symmetry_equiv_pos_site_id
 _symmetry_equiv_pos_as_xyz
  1  'x, y, z'
loop_
 _atom_site_type_symbol
 _atom_site_label
 _atom_site_symmetry_multiplicity
 _atom_site_fract_x
 _atom_site_fract_y
 _atom_site_fract_z
 _atom_site_occupancy
  Li  Li0  1  0.05337500  0.19859000  0.76825600  1
  Li  Li1  1  0.47053000  0.10911600  0.25821500  1
  Li  Li2  1  0.53562100  0.44455900  0.61193700  1
  Li  Li3  1  0.96761200  0.54007200  0.87809000  1
  Li  Li4  1  0.04284800  0.22002100  0.55678400  1
  Li  Li5  1  0.51665100  0.24558700  0.04260100  1
  Li  Li6  1  0.94862400  0.32053900  0.32205600  1
  Li  Li7  1  0.48629100  0.82692700  0.93713500  1
  Li  Li8  1  0.97212900  0.74971700  0.46912400  1
  Li  Li9  1  0.98295100  0.40022300  0.10323300  1
  Li  Li10  1  0.49023200  0.57962900  0.38624000  1
  Li  Li11  1  0.48616500  0.84117000  0.72197800  1
  Li  Li12  1  0.99084900  0.83935600  0.25433400  1
  Li  Li13  1  0.52071300  0.67685800  0.17213700  1
  Co  Co0  1  0.00523600  0.89829900  0.05162600  1
  Co  Co1  1  0.50555000  0.01153400  0.49221700  1
  O  O0  1  0.25610400  0.58602900  0.59584100  1
  O  O1  1  0.28249100  0.81986300  0.20476800  1
  O  O2  1  0.16421500  0.85607700  0.96363300  1
  O  O3  1  0.66468200  0.88107600  0.43464600  1
  O  O4  1  0.69025100  0.50578600  0.11809100  1
  O  O5  1  0.34547400  0.15350200  0.54058200  1
  O  O6  1  0.82742700  0.11518500  0.05580300  1
  O  O7  1  0.77444300  0.43958900  0.39310900  1
  F  F0  1  0.86382900  0.88699100  0.72128200  1
  F  F1  1  0.32065900  0.52735500  0.88825400  1
  F  F2  1  0.14652000  0.15925600  0.27720800  1
  F  F3  1  0.68853000  0.16709200  0.78082200  1
loop_
_geom_bond_atom_site_label_1
_geom_bond_atom_site_label_2
_geom_bond_distance
_geom_bond_site_symmetry_2
Li0 Li3 2.189715 1_455
Li0 Li4 2.208232 1_555
Li1 O1 1.497789 1_545
Li2 O5 1.539812 1_555
Li2 O0 2.008262 1_555
Li3 O2 1.681005 1_655
Li4 O5 1.798777 1_555
Li4 O0 1.858421 1_555
Li4 O3 2.275220 1_445
Li4 Li8 2.466528 1_445
Li5 O4 1.413923 1_555
Li6 O7 1.426339 1_555
Li7 O2 1.794225 1_555
Li7 O6 2.057959 1_566
Li8 O7 1.634560 1_555
Li8 O3 2.155690 1_555
Li9 O6 1.442083 1_555
Li9 O4 1.883254 1_555
Li10 O3 1.531456 1_555
Li10 O7 2.004926 1_555
Li10 O0 2.409881 1_555
Li11 O0 1.737304 1_555
Li11 Li7 2.227471 1_555
Li12 O1 1.645807 1_655
Li12 O4 2.117832 1_555
Li13 O4 1.571673 1_555
Li13 O1 1.752486 1_555
Co0 O2 1.242698 1_554
Co0 O6 1.843193 1_465
Co0 Li12 2.182260 1_455
Co1 O3 1.362517 1_545
Co1 O5 1.395118 1_555
F0 Li0 1.589845 1_665
F0 Li11 1.923951 1_555
F0 F3 2.115012 1_565
F1 Li7 1.516411 1_555
F1 Li3 1.930110 1_455
F1 Li0 1.960069 1_555
F2 Li12 1.616788 1_445
F2 Li6 1.644983 1_455
F2 Li1 1.860513 1_555
F3 Li11 1.674946 1_545
F3 Li0 1.880880 1_655
F3 Li3 2.041654 1_555
