# generated using pymatgen
data_YbCl2
_symmetry_space_group_name_H-M   'P 1'
_cell_length_a   13.43815020
_cell_length_b   13.43815020
_cell_length_c   6.75776224
_cell_angle_alpha   90.00000000
_cell_angle_beta   90.00000000
_cell_angle_gamma   90.00000000
_symmetry_Int_Tables_number   1
_chemical_formula_structural   YbCl2
_chemical_formula_sum   'Yb16 Cl32'
_cell_volume   1220.34293191
_cell_formula_units_Z   16
loop_
 _symmetry_equiv_pos_site_id
 _symmetry_equiv_pos_as_xyz
  1  'x, y, z'
loop_
 _atom_site_type_symbol
 _atom_site_label
 _atom_site_symmetry_multiplicity
 _atom_site_fract_x
 _atom_site_fract_y
 _atom_site_fract_z
 _atom_site_occupancy
  Yb  Yb0_0  1  0.00000000  0.00000000  0.00000000  1
  Yb  Yb0_1  1  0.00000000  0.00000000  0.50000000  1
  Yb  Yb0_2  1  0.00000000  0.50000000  0.00000000  1
  Yb  Yb0_3  1  0.00000000  0.50000000  0.50000000  1
  Yb  Yb0_4  1  0.50000000  0.00000000  0.00000000  1
  Yb  Yb0_5  1  0.50000000  0.00000000  0.50000000  1
  Yb  Yb0_6  1  0.50000000  0.50000000  0.00000000  1
  Yb  Yb0_7  1  0.50000000  0.50000000  0.50000000  1
  Yb  Yb1_0  1  0.25000000  0.25000000  0.25000000  1
  Yb  Yb1_1  1  0.25000000  0.25000000  0.75000000  1
  Yb  Yb1_2  1  0.25000000  0.75000000  0.25000000  1
  Yb  Yb1_3  1  0.25000000  0.75000000  0.75000000  1
  Yb  Yb1_4  1  0.75000000  0.25000000  0.25000000  1
  Yb  Yb1_5  1  0.75000000  0.25000000  0.75000000  1
  Yb  Yb1_6  1  0.75000000  0.75000000  0.25000000  1
  Yb  Yb1_7  1  0.75000000  0.75000000  0.75000000  1
  Cl  Cl0_0  1  0.13974939  0.13974939  0.00000000  1
  Cl  Cl0_1  1  0.13974939  0.13974939  0.50000000  1
  Cl  Cl0_2  1  0.13974939  0.63974939  0.00000000  1
  Cl  Cl0_3  1  0.13974939  0.63974939  0.50000000  1
  Cl  Cl0_4  1  0.63974939  0.13974939  0.00000000  1
  Cl  Cl0_5  1  0.63974939  0.13974939  0.50000000  1
  Cl  Cl0_6  1  0.63974939  0.63974939  0.00000000  1
  Cl  Cl0_7  1  0.63974939  0.63974939  0.50000000  1
  Cl  Cl1_0  1  0.36025061  0.36025061  0.00000000  1
  Cl  Cl1_1  1  0.36025061  0.36025061  0.50000000  1
  Cl  Cl1_2  1  0.36025061  0.86025061  0.00000000  1
  Cl  Cl1_3  1  0.36025061  0.86025061  0.50000000  1
  Cl  Cl1_4  1  0.86025061  0.36025061  0.00000000  1
  Cl  Cl1_5  1  0.86025061  0.36025061  0.50000000  1
  Cl  Cl1_6  1  0.86025061  0.86025061  0.00000000  1
  Cl  Cl1_7  1  0.86025061  0.86025061  0.50000000  1
  Cl  Cl2_0  1  0.11025061  0.38974939  0.25000000  1
  Cl  Cl2_1  1  0.11025061  0.38974939  0.75000000  1
  Cl  Cl2_2  1  0.11025061  0.88974939  0.25000000  1
  Cl  Cl2_3  1  0.11025061  0.88974939  0.75000000  1
  Cl  Cl2_4  1  0.61025061  0.38974939  0.25000000  1
  Cl  Cl2_5  1  0.61025061  0.38974939  0.75000000  1
  Cl  Cl2_6  1  0.61025061  0.88974939  0.25000000  1
  Cl  Cl2_7  1  0.61025061  0.88974939  0.75000000  1
  Cl  Cl3_0  1  0.38974939  0.11025061  0.25000000  1
  Cl  Cl3_1  1  0.38974939  0.11025061  0.75000000  1
  Cl  Cl3_2  1  0.38974939  0.61025061  0.25000000  1
  Cl  Cl3_3  1  0.38974939  0.61025061  0.75000000  1
  Cl  Cl3_4  1  0.88974939  0.11025061  0.25000000  1
  Cl  Cl3_5  1  0.88974939  0.11025061  0.75000000  1
  Cl  Cl3_6  1  0.88974939  0.61025061  0.25000000  1
  Cl  Cl3_7  1  0.88974939  0.61025061  0.75000000  1
loop_
_geom_bond_atom_site_label_1
_geom_bond_atom_site_label_2
_geom_bond_distance
_geom_bond_site_symmetry_2
Cl0_0 Yb0_0 2.655855 1_555
Cl0_0 Yb1_1 2.691519 1_554
Cl0_0 Yb1_0 2.691519 1_555
Cl0_0 Cl0_1 3.378881 1_554
Cl0_0 Cl0_1 3.378881 1_555
Cl0_1 Yb0_1 2.655855 1_555
Cl0_1 Yb1_0 2.691519 1_555
Cl0_1 Yb1_1 2.691519 1_555
Cl0_2 Yb0_2 2.655855 1_555
Cl0_2 Yb1_3 2.691519 1_554
Cl0_2 Yb1_2 2.691519 1_555
Cl0_2 Cl0_3 3.378881 1_555
Cl0_2 Cl0_3 3.378881 1_554
Cl0_3 Yb0_3 2.655855 1_555
Cl0_3 Yb1_3 2.691519 1_555
Cl0_3 Yb1_2 2.691519 1_555
Cl0_4 Yb0_4 2.655855 1_555
Cl0_4 Yb1_5 2.691519 1_554
Cl0_4 Yb1_4 2.691519 1_555
Cl0_4 Cl0_5 3.378881 1_554
Cl0_4 Cl0_5 3.378881 1_555
Cl0_5 Yb0_5 2.655855 1_555
Cl0_5 Yb1_4 2.691519 1_555
Cl0_5 Yb1_5 2.691519 1_555
Cl0_6 Yb0_6 2.655855 1_555
Cl0_6 Yb1_6 2.691519 1_555
Cl0_6 Yb1_7 2.691519 1_554
Cl0_6 Cl0_7 3.378881 1_555
Cl0_6 Cl0_7 3.378881 1_554
Cl0_7 Yb0_7 2.655855 1_555
Cl0_7 Yb1_6 2.691519 1_555
Cl0_7 Yb1_7 2.691519 1_555
Cl1_0 Yb0_6 2.655855 1_555
Cl1_0 Yb1_0 2.691519 1_555
Cl1_0 Yb1_1 2.691519 1_554
Cl1_0 Cl1_1 3.378881 1_555
Cl1_0 Cl1_1 3.378881 1_554
Cl1_1 Yb0_7 2.655855 1_555
Cl1_1 Yb1_0 2.691519 1_555
Cl1_1 Yb1_1 2.691519 1_555
Cl1_2 Yb0_4 2.655855 1_565
Cl1_2 Yb1_2 2.691519 1_555
Cl1_2 Yb1_3 2.691519 1_554
Cl1_2 Cl1_3 3.378881 1_554
Cl1_2 Cl1_3 3.378881 1_555
Cl1_3 Yb0_5 2.655855 1_565
Cl1_3 Yb1_2 2.691519 1_555
Cl1_3 Yb1_3 2.691519 1_555
Cl1_4 Yb0_2 2.655855 1_655
Cl1_4 Yb1_5 2.691519 1_554
Cl1_4 Yb1_4 2.691519 1_555
Cl1_4 Cl1_5 3.378881 1_555
Cl1_4 Cl1_5 3.378881 1_554
Cl1_5 Yb0_3 2.655855 1_655
Cl1_5 Yb1_4 2.691519 1_555
Cl1_5 Yb1_5 2.691519 1_555
Cl1_6 Yb0_0 2.655855 1_665
Cl1_6 Yb1_6 2.691519 1_555
Cl1_6 Yb1_7 2.691519 1_554
Cl1_6 Cl1_7 3.378881 1_555
Cl1_6 Cl1_7 3.378881 1_554
Cl1_7 Yb0_1 2.655855 1_665
Cl1_7 Yb1_6 2.691519 1_555
Cl1_7 Yb1_7 2.691519 1_555
Cl2_0 Yb1_0 2.655855 1_555
Cl2_0 Yb0_2 2.691519 1_555
Cl2_0 Yb0_3 2.691519 1_555
Cl2_0 Cl2_1 3.378881 1_554
Cl2_0 Cl2_1 3.378881 1_555
Cl2_1 Yb1_1 2.655855 1_555
Cl2_1 Yb0_2 2.691519 1_556
Cl2_1 Yb0_3 2.691519 1_555
Cl2_2 Yb1_2 2.655855 1_555
Cl2_2 Yb0_0 2.691519 1_565
Cl2_2 Yb0_1 2.691519 1_565
Cl2_2 Cl2_3 3.378881 1_555
Cl2_2 Cl2_3 3.378881 1_554
Cl2_3 Yb1_3 2.655855 1_555
Cl2_3 Yb0_0 2.691519 1_566
Cl2_3 Yb0_1 2.691519 1_565
Cl2_4 Yb1_4 2.655855 1_555
Cl2_4 Yb0_7 2.691519 1_555
Cl2_4 Yb0_6 2.691519 1_555
Cl2_4 Cl2_5 3.378881 1_554
Cl2_4 Cl2_5 3.378881 1_555
Cl2_5 Yb1_5 2.655855 1_555
Cl2_5 Yb0_7 2.691519 1_555
Cl2_5 Yb0_6 2.691519 1_556
Cl2_6 Yb1_6 2.655855 1_555
Cl2_6 Yb0_5 2.691519 1_565
Cl2_6 Yb0_4 2.691519 1_565
Cl2_6 Cl2_7 3.378881 1_554
Cl2_6 Cl2_7 3.378881 1_555
Cl2_7 Yb1_7 2.655855 1_555
Cl2_7 Yb0_5 2.691519 1_565
Cl2_7 Yb0_4 2.691519 1_566
Cl3_0 Yb1_0 2.655855 1_555
Cl3_0 Yb0_5 2.691519 1_555
Cl3_0 Yb0_4 2.691519 1_555
Cl3_0 Cl3_1 3.378881 1_555
Cl3_0 Cl3_1 3.378881 1_554
Cl3_1 Yb1_1 2.655855 1_555
Cl3_1 Yb0_5 2.691519 1_555
Cl3_1 Yb0_4 2.691519 1_556
Cl3_2 Yb1_2 2.655855 1_555
Cl3_2 Yb0_7 2.691519 1_555
Cl3_2 Yb0_6 2.691519 1_555
Cl3_2 Cl3_3 3.378881 1_555
Cl3_2 Cl3_3 3.378881 1_554
Cl3_3 Yb1_3 2.655855 1_555
Cl3_3 Yb0_7 2.691519 1_555
Cl3_3 Yb0_6 2.691519 1_556
Cl3_4 Yb1_4 2.655855 1_555
Cl3_4 Yb0_1 2.691519 1_655
Cl3_4 Yb0_0 2.691519 1_655
Cl3_4 Cl3_5 3.378881 1_555
Cl3_4 Cl3_5 3.378881 1_554
Cl3_5 Yb1_5 2.655855 1_555
Cl3_5 Yb0_1 2.691519 1_655
Cl3_5 Yb0_0 2.691519 1_656
Cl3_6 Yb1_6 2.655855 1_555
Cl3_6 Yb0_2 2.691519 1_655
Cl3_6 Yb0_3 2.691519 1_655
Cl3_6 Cl3_7 3.378881 1_554
Cl3_6 Cl3_7 3.378881 1_555
Cl3_7 Yb1_7 2.655855 1_555
Cl3_7 Yb0_2 2.691519 1_656
Cl3_7 Yb0_3 2.691519 1_655
