# generated using pymatgen
data_Li2MnV4NiO12
_symmetry_space_group_name_H-M   'P 1'
_cell_length_a   6.96415828
_cell_length_b   6.96415828
_cell_length_c   5.74124890
_cell_angle_alpha   74.38176871
_cell_angle_beta   74.38176871
_cell_angle_gamma   83.34545665
_symmetry_Int_Tables_number   1
_chemical_formula_structural   Li2MnV4NiO12
_chemical_formula_sum   'Li2 Mn1 V4 Ni1 O12'
_cell_volume   257.98215395
_cell_formula_units_Z   1
loop_
 _symmetry_equiv_pos_site_id
 _symmetry_equiv_pos_as_xyz
  1  'x, y, z'
loop_
 _atom_site_type_symbol
 _atom_site_label
 _atom_site_symmetry_multiplicity
 _atom_site_fract_x
 _atom_site_fract_y
 _atom_site_fract_z
 _atom_site_occupancy
  Li  Li0  1  0.75731200  0.24268800  0.50000000  1
  Li  Li1  1  0.24072800  0.75927200  0.00000000  1
  Mn  Mn0  1  0.91262600  0.08737400  0.00000000  1
  V  V0  1  0.79634200  0.61039500  0.01839800  1
  V  V1  1  0.60267500  0.81250700  0.51782200  1
  V  V2  1  0.38960500  0.20365800  0.98160200  1
  V  V3  1  0.18749300  0.39732500  0.48217800  1
  Ni  Ni0  1  0.08602300  0.91397700  0.50000000  1
  O  O0  1  0.97752700  0.79145300  0.89501500  1
  O  O1  1  0.90586900  0.37410500  0.07106200  1
  O  O2  1  0.80352400  0.98044700  0.40232000  1
  O  O3  1  0.64223000  0.63528600  0.81460000  1
  O  O4  1  0.62589500  0.09413100  0.92893800  1
  O  O5  1  0.65037200  0.63455300  0.31056500  1
  O  O6  1  0.36471400  0.35777000  0.18540000  1
  O  O7  1  0.35479600  0.89127900  0.59284600  1
  O  O8  1  0.36544700  0.34962800  0.68943500  1
  O  O9  1  0.20854700  0.02247300  0.10498500  1
  O  O10  1  0.10872100  0.64520400  0.40715400  1
  O  O11  1  0.01955300  0.19647600  0.59768000  1
loop_
_geom_bond_atom_site_label_1
_geom_bond_atom_site_label_2
_geom_bond_distance
_geom_bond_site_symmetry_2
Li0 O11 2.017791 1_655
Li0 O2 2.017791 1_545
Li0 O4 2.367816 1_555
Li0 O1 2.367816 1_555
Li0 O5 2.748079 1_555
Li0 O8 2.748079 1_555
Li1 O9 2.049455 1_565
Li1 O0 2.049455 1_454
Li1 O10 2.225468 1_555
Li1 O7 2.225468 1_554
Li1 O6 2.833658 1_555
Li1 O3 2.833658 1_554
Mn0 O1 2.136021 1_555
Mn0 O4 2.136021 1_554
Mn0 O11 2.174183 1_654
Mn0 O2 2.174183 1_545
Mn0 O9 2.262947 1_655
Mn0 O0 2.262947 1_544
Ni0 O10 2.058150 1_555
Ni0 O7 2.058150 1_555
Ni0 O9 2.151055 1_565
Ni0 O0 2.151055 1_455
Ni0 O11 2.154657 1_565
Ni0 O2 2.154657 1_455
O0 V0 1.757942 1_556
O1 V0 1.716528 1_555
O2 V1 1.796162 1_555
O3 V0 1.753514 1_556
O3 V1 1.882532 1_555
O4 V2 1.716528 1_555
O5 V0 1.752009 1_555
O5 V1 1.883586 1_555
O6 V2 1.753514 1_554
O6 V3 1.882532 1_555
O7 V1 1.724486 1_555
O8 V2 1.752009 1_555
O8 V3 1.883586 1_555
O9 V2 1.757942 1_554
O10 V3 1.724486 1_555
O11 V3 1.796162 1_555
