# generated using pymatgen
data_LiCoO2
_symmetry_space_group_name_H-M   'P 1'
_cell_length_a   4.95337353
_cell_length_b   5.00346270
_cell_length_c   7.57309971
_cell_angle_alpha   108.77149797
_cell_angle_beta   102.85051380
_cell_angle_gamma   99.44979338
_symmetry_Int_Tables_number   1
_chemical_formula_structural   LiCoO2
_chemical_formula_sum   'Li5 Co5 O10'
_cell_volume   167.51174413
_cell_formula_units_Z   5
loop_
 _symmetry_equiv_pos_site_id
 _symmetry_equiv_pos_as_xyz
  1  'x, y, z'
loop_
 _atom_site_type_symbol
 _atom_site_label
 _atom_site_symmetry_multiplicity
 _atom_site_fract_x
 _atom_site_fract_y
 _atom_site_fract_z
 _atom_site_occupancy
  Li  Li0  1  0.21303700  0.91459900  0.41470400  1
  Li  Li1  1  0.39190100  0.28908400  0.77911500  1
  Li  Li2  1  0.50000000  0.50000000  0.50000000  1
  Li  Li3  1  0.60809900  0.71091600  0.22088500  1
  Li  Li4  1  0.78696300  0.08540100  0.58529600  1
  Co  Co0  1  0.10254400  0.69850000  0.69451500  1
  Co  Co1  1  0.00000000  0.50000000  0.00000000  1
  Co  Co2  1  0.69737400  0.89695000  0.89890700  1
  Co  Co3  1  0.30262600  0.10305000  0.10109300  1
  Co  Co4  1  0.89745600  0.30150000  0.30548500  1
  O  O0  1  0.03781500  0.08105600  0.85760000  1
  O  O1  1  0.34754500  0.72638200  0.94859400  1
  O  O2  1  0.13032500  0.32302900  0.54841100  1
  O  O3  1  0.22750900  0.47251300  0.23061800  1
  O  O4  1  0.44594900  0.89047100  0.66635700  1
  O  O5  1  0.55405100  0.10952900  0.33364300  1
  O  O6  1  0.77249100  0.52748700  0.76938200  1
  O  O7  1  0.86967500  0.67697100  0.45158900  1
  O  O8  1  0.65245500  0.27361800  0.05140600  1
  O  O9  1  0.96218500  0.91894400  0.14240000  1
loop_
_geom_bond_atom_site_label_1
_geom_bond_atom_site_label_2
_geom_bond_distance
_geom_bond_site_symmetry_2
Li0 O7 2.036035 1_455
Li0 O4 2.047787 1_555
Li0 O5 2.118258 1_565
Li0 O2 2.120619 1_565
Li0 O9 2.166789 1_455
Li0 O3 2.225604 1_555
Li1 O4 1.989874 1_545
Li1 O2 2.004107 1_555
Li1 O6 2.088607 1_555
Li1 O0 2.185252 1_555
Li1 O8 2.208068 1_556
Li1 O1 2.226855 1_555
Li2 O4 2.052691 1_555
Li2 O5 2.052691 1_555
Li2 O2 2.060743 1_555
Li2 O7 2.060743 1_555
Li2 O3 2.129839 1_555
Li2 O6 2.129839 1_555
Li3 O5 1.989874 1_565
Li3 O7 2.004107 1_555
Li3 O3 2.088607 1_555
Li3 O9 2.185252 1_555
Li3 O1 2.208068 1_554
Li3 O8 2.226855 1_555
Li4 O2 2.036035 1_655
Li4 O5 2.047787 1_555
Li4 O4 2.118258 1_545
Li4 O7 2.120619 1_545
Li4 O0 2.166789 1_655
Li4 O6 2.225604 1_555
Co0 O2 1.894030 1_555
Co0 O7 1.901149 1_455
Co0 O4 1.902152 1_555
Co0 O1 1.981816 1_555
Co0 O6 1.997905 1_455
Co0 O0 2.036706 1_565
Co1 O6 1.915499 1_454
Co1 O3 1.915499 1_555
Co1 O8 2.083217 1_455
Co1 O1 2.083217 1_554
Co1 O0 2.087082 1_554
Co1 O9 2.087082 1_455
Co2 O4 1.904735 1_555
Co2 O0 1.923576 1_665
Co2 O6 1.933678 1_555
Co2 O8 1.945854 1_566
Co2 O9 1.969542 1_556
Co2 O1 1.970725 1_555
Co3 O5 1.904735 1_555
Co3 O9 1.923576 1_445
Co3 O3 1.933678 1_555
Co3 O1 1.945854 1_544
Co3 O0 1.969542 1_554
Co3 O8 1.970725 1_555
Co4 O7 1.894030 1_555
Co4 O2 1.901149 1_655
Co4 O5 1.902152 1_555
Co4 O8 1.981816 1_555
Co4 O3 1.997905 1_655
Co4 O9 2.036706 1_545
