# generated using pymatgen
data_La2Nb2N2O5
_symmetry_space_group_name_H-M   'P 1'
_cell_length_a   5.71193300
_cell_length_b   8.02746765
_cell_length_c   13.76058171
_cell_angle_alpha   98.38113589
_cell_angle_beta   90.03465082
_cell_angle_gamma   90.12351395
_symmetry_Int_Tables_number   1
_chemical_formula_structural   La2Nb2N2O5
_chemical_formula_sum   'La8 Nb8 N8 O20'
_cell_volume   624.21502750
_cell_formula_units_Z   4
loop_
 _symmetry_equiv_pos_site_id
 _symmetry_equiv_pos_as_xyz
  1  'x, y, z'
loop_
 _atom_site_type_symbol
 _atom_site_label
 _atom_site_symmetry_multiplicity
 _atom_site_fract_x
 _atom_site_fract_y
 _atom_site_fract_z
 _atom_site_occupancy
  La  La0  1  0.34095200  0.13525300  0.57137000  1
  La  La1  1  0.76103200  0.22311600  0.90793900  1
  La  La2  1  0.25304900  0.28066700  0.12257700  1
  La  La3  1  0.77968000  0.35181000  0.38912600  1
  La  La4  1  0.27412800  0.66086000  0.60847200  1
  La  La5  1  0.74773900  0.72494700  0.87867700  1
  La  La6  1  0.26251300  0.77597900  0.09575700  1
  La  La7  1  0.83792200  0.85901400  0.43177900  1
  Nb  Nb0  1  0.27919900  0.06343800  0.31610300  1
  Nb  Nb1  1  0.75194600  0.01952100  0.11793800  1
  Nb  Nb2  1  0.78334300  0.40106400  0.67487300  1
  Nb  Nb3  1  0.25870500  0.47279900  0.88572900  1
  Nb  Nb4  1  0.75080800  0.53444200  0.12258500  1
  Nb  Nb5  1  0.29075300  0.59088100  0.32134100  1
  Nb  Nb6  1  0.24263700  0.97056700  0.88138100  1
  Nb  Nb7  1  0.78782200  0.92459400  0.67286900  1
  N  N0  1  0.45122600  0.03050100  0.18414800  1
  N  N1  1  0.68920100  0.18043200  0.69873000  1
  N  N2  1  0.44530000  0.56361400  0.18081400  1
  N  N3  1  0.55910600  0.87141600  0.57088500  1
  N  N4  1  0.81954800  0.77486200  0.10414800  1
  N  N5  1  0.19353700  0.82630600  0.30381700  1
  N  N6  1  0.94947100  0.97646800  0.82130100  1
  N  N7  1  0.05055800  0.91337400  0.58678700  1
  O  O0  1  0.54600100  0.08703500  0.40710800  1
  O  O1  1  0.32444100  0.22628800  0.88999000  1
  O  O2  1  0.05472000  0.13536600  0.42576600  1
  O  O3  1  0.04990400  0.04901500  0.01940700  1
  O  O4  1  0.96504000  0.11831300  0.22465500  1
  O  O5  1  0.07680700  0.37601900  0.61257600  1
  O  O6  1  0.94609700  0.43585500  0.82148800  1
  O  O7  1  0.67763700  0.27412000  0.08254500  1
  O  O8  1  0.34308000  0.33172000  0.30585600  1
  O  O9  1  0.58521100  0.41006100  0.55905800  1
  O  O10  1  0.53076900  0.53257600  0.97787600  1
  O  O11  1  0.45241400  0.50196700  0.77601400  1
  O  O12  1  0.95582500  0.49566500  0.22883400  1
  O  O13  1  0.04317200  0.45943500  0.01571900  1
  O  O14  1  0.07414800  0.58602800  0.43587800  1
  O  O15  1  0.84736900  0.67240300  0.70179400  1
  O  O16  1  0.17610900  0.72683600  0.91464200  1
  O  O17  1  0.57614100  0.62023800  0.38966900  1
  O  O18  1  0.45089900  0.87526600  0.77966700  1
  O  O19  1  0.54902200  0.95986900  0.98231200  1
loop_
_geom_bond_atom_site_label_1
_geom_bond_atom_site_label_2
_geom_bond_distance
_geom_bond_site_symmetry_2
La0 O5 2.455106 1_555
La0 N3 2.458803 1_545
La0 N7 2.463043 1_545
La0 O0 2.526033 1_555
La0 O2 2.585342 1_555
La0 O9 2.633955 1_555
La0 N1 2.639537 1_555
La1 N6 2.413029 1_545
La1 O7 2.425462 1_556
La1 O6 2.456624 1_555
La1 O1 2.506381 1_555
La1 O13 2.749416 1_656
La1 O19 2.756888 1_545
La1 O3 2.767736 1_656
La1 O10 2.854099 1_555
La1 N1 2.878170 1_555
La2 O3 2.457446 1_555
La2 O7 2.486287 1_555
La2 O13 2.505812 1_555
La2 N2 2.542571 1_555
La2 O8 2.547399 1_555
La2 N0 2.556698 1_555
La2 O4 2.627765 1_455
La2 O12 2.697936 1_455
La2 O1 3.193011 1_554
La3 O17 2.449687 1_555
La3 O2 2.450991 1_655
La3 O14 2.531887 1_655
La3 O0 2.549888 1_555
La3 O9 2.570426 1_555
La3 O8 2.738447 1_555
La3 O12 2.819788 1_555
La3 O4 2.920834 1_555
La4 N7 2.452706 1_555
La4 N3 2.453172 1_555
La4 O5 2.555081 1_555
La4 O14 2.623756 1_555
La4 O9 2.700146 1_555
La4 O15 2.751313 1_455
La4 O18 2.887734 1_555
La4 O11 2.973078 1_555
La5 O19 2.470953 1_555
La5 O15 2.475804 1_555
La5 O16 2.495651 1_655
La5 O10 2.528288 1_555
La5 N6 2.546282 1_555
La5 O18 2.583102 1_555
La5 O6 2.601648 1_555
La5 O11 2.700408 1_555
La5 N4 3.096827 1_556
La6 N2 2.440088 1_555
La6 N0 2.465830 1_565
La6 O16 2.514272 1_554
La6 N4 2.532946 1_455
La6 O10 2.808701 1_554
La6 O19 2.821109 1_554
La6 O3 2.839672 1_565
La6 N5 2.860110 1_555
La6 O13 2.899717 1_555
La7 O17 2.430726 1_555
La7 N7 2.436907 1_655
La7 N3 2.481757 1_555
La7 O0 2.537654 1_565
La7 O2 2.550184 1_665
La7 O14 2.583539 1_655
La7 N5 2.677179 1_655
Nb0 O0 1.963117 1_555
Nb0 O2 2.001535 1_555
Nb0 O8 2.208240 1_555
Nb0 O4 2.271542 1_455
Nb1 O4 1.980175 1_555
Nb1 O19 2.188676 1_544
Nb1 O3 2.210321 1_655
Nb1 O7 2.210898 1_555
Nb2 O5 1.880967 1_655
Nb2 O9 1.964063 1_555
Nb2 O15 2.185534 1_555
Nb2 O6 2.201119 1_555
Nb2 O11 2.418111 1_555
Nb3 O11 1.913723 1_555
Nb3 O6 1.994275 1_455
Nb3 O10 2.017438 1_555
Nb3 O1 2.024181 1_555
Nb3 O16 2.075419 1_555
Nb3 O13 2.187409 1_556
Nb4 O12 1.933389 1_555
Nb4 O7 2.122621 1_555
Nb4 O13 2.250110 1_655
Nb4 O10 2.352293 1_554
Nb5 O17 1.878498 1_555
Nb5 O14 2.009077 1_555
Nb5 O8 2.082393 1_555
Nb5 O12 2.360431 1_455
Nb6 O18 1.911324 1_555
Nb6 O1 2.090748 1_565
Nb6 O16 2.107130 1_555
Nb6 O3 2.207432 1_566
Nb6 O19 2.243098 1_555
Nb7 O15 2.147145 1_555
Nb7 O18 2.487958 1_555
N0 Nb1 1.940993 1_555
N0 Nb0 2.048364 1_555
N0 O8 2.803650 1_555
N0 O19 2.809189 1_544
N0 O7 2.870557 1_555
N1 Nb2 1.923378 1_555
N1 Nb7 2.110439 1_545
N2 Nb4 1.921142 1_555
N2 Nb5 2.108557 1_555
N2 O8 2.774359 1_555
N2 O10 2.810349 1_554
N2 O7 2.844230 1_555
N3 Nb7 1.918097 1_555
N4 Nb1 1.984211 1_565
N4 Nb4 2.020614 1_555
N4 O19 2.852494 1_554
N4 O13 2.939610 1_655
N4 O3 2.944796 1_665
N5 Nb0 1.947726 1_565
N5 Nb5 2.018739 1_555
N6 Nb6 1.870807 1_655
N6 Nb7 2.223939 1_555
N6 O3 2.762876 1_666
N6 O15 2.797299 1_555
N7 Nb7 1.906585 1_455
O0 O8 2.819295 1_555
O1 O10 2.831211 1_555
O1 O13 2.854750 1_556
O1 O3 2.896222 1_556
O1 O19 2.938586 1_545
O2 O4 2.797715 1_455
O3 O4 2.840085 1_455
O3 O7 2.846529 1_455
O4 O8 2.875614 1_655
O4 O7 2.966696 1_555
O10 O16 2.774852 1_555
O10 O7 2.821344 1_556
O10 O13 2.908030 1_556
O10 O13 3.045788 1_656
O11 O15 2.898469 1_555
O12 O8 2.857360 1_655
O12 O7 2.946240 1_555
O13 O6 2.708699 1_454
O13 O7 2.793862 1_455
O13 O16 2.825492 1_554
O15 O6 2.748053 1_555
O15 O5 2.837124 1_655
O15 O18 2.904962 1_555
O16 O18 2.823755 1_555
O16 O3 2.865170 1_566
O16 O19 2.894173 1_555
O17 O8 2.769955 1_555
O18 O19 2.827644 1_555
O19 O7 2.789672 1_566
O19 O3 2.967243 1_566
O19 O3 2.973370 1_666
