# generated using pymatgen
data_Sc2IrRh
_symmetry_space_group_name_H-M   'P 1'
_cell_length_a   4.54988546
_cell_length_b   4.54972818
_cell_length_c   4.54992356
_cell_angle_alpha   59.99955470
_cell_angle_beta   59.99998735
_cell_angle_gamma   60.00141043
_symmetry_Int_Tables_number   1
_chemical_formula_structural   Sc2IrRh
_chemical_formula_sum   'Sc2 Ir1 Rh1'
_cell_volume   66.60060007
_cell_formula_units_Z   1
loop_
 _symmetry_equiv_pos_site_id
 _symmetry_equiv_pos_as_xyz
  1  'x, y, z'
loop_
 _atom_site_type_symbol
 _atom_site_label
 _atom_site_symmetry_multiplicity
 _atom_site_fract_x
 _atom_site_fract_y
 _atom_site_fract_z
 _atom_site_occupancy
  Sc  Sc0  1  0.99999686  0.99999664  0.00000479  1
  Sc  Sc1  1  0.50000456  0.50000171  0.49999728  1
  Ir  Ir0  1  0.24999995  0.24999992  0.24999837  1
  Rh  Rh0  1  0.74999762  0.75000073  0.74999755  1
loop_
_geom_bond_atom_site_label_1
_geom_bond_atom_site_label_2
_geom_bond_distance
_geom_bond_site_symmetry_2
Sc0 Sc1 3.217113 1_555
Sc0 Sc1 3.217195 1_664
Sc0 Sc1 3.217250 1_565
Sc0 Sc1 3.217265 1_654
Sc0 Sc1 3.217291 1_564
Sc0 Sc1 3.217293 1_655
Ir0 Sc0 2.786136 1_455
Ir0 Sc1 2.786142 1_545
Ir0 Sc0 2.786193 1_445
Ir0 Sc1 2.786213 1_555
Ir0 Sc1 2.786232 1_554
Ir0 Sc1 2.786240 1_455
Ir0 Sc0 2.786246 1_545
Ir0 Sc0 2.786252 1_446
Ir0 Rh0 3.217149 1_554
Ir0 Rh0 3.217159 1_445
Ir0 Rh0 3.217258 1_455
Ir0 Rh0 3.217258 1_544
Ir0 Rh0 3.217282 1_545
Ir0 Rh0 3.217302 1_454
Rh0 Sc1 2.786152 1_565
Rh0 Sc0 2.786164 1_546
Rh0 Sc1 2.786165 1_555
Rh0 Sc0 2.786201 1_555
Rh0 Sc0 2.786202 1_556
Rh0 Sc1 2.786227 1_556
Rh0 Sc0 2.786260 1_456
Rh0 Sc1 2.786283 1_655
