# generated using pymatgen
data_CeAlAg2
_symmetry_space_group_name_H-M   'P 1'
_cell_length_a   4.94769544
_cell_length_b   4.94769544
_cell_length_c   4.94769544
_cell_angle_alpha   60.00000000
_cell_angle_beta   60.00000000
_cell_angle_gamma   60.00000000
_symmetry_Int_Tables_number   1
_chemical_formula_structural   CeAlAg2
_chemical_formula_sum   'Ce1 Al1 Ag2'
_cell_volume   85.64339571
_cell_formula_units_Z   1
loop_
 _symmetry_equiv_pos_site_id
 _symmetry_equiv_pos_as_xyz
  1  'x, y, z'
loop_
 _atom_site_type_symbol
 _atom_site_label
 _atom_site_symmetry_multiplicity
 _atom_site_fract_x
 _atom_site_fract_y
 _atom_site_fract_z
 _atom_site_occupancy
  Ce  Ce0  1  0.00000000  0.00000000  0.00000000  1
  Al  Al0  1  0.50000000  0.50000000  0.50000000  1
  Ag  Ag0  1  0.75000000  0.75000000  0.75000000  1
  Ag  Ag1  1  0.25000000  0.25000000  0.25000000  1
loop_
_geom_bond_atom_site_label_1
_geom_bond_atom_site_label_2
_geom_bond_distance
_geom_bond_site_symmetry_2
Al0 Ce0 3.498549 1_656
Al0 Ce0 3.498549 1_565
Al0 Ce0 3.498549 1_556
Al0 Ce0 3.498549 1_655
Al0 Ce0 3.498549 1_566
Al0 Ce0 3.498549 1_665
Ag0 Al0 3.029832 1_655
Ag0 Ce0 3.029832 1_566
Ag0 Al0 3.029832 1_565
Ag0 Ce0 3.029832 1_665
Ag0 Al0 3.029832 1_555
Ag0 Al0 3.029832 1_556
Ag0 Ce0 3.029832 1_666
Ag0 Ce0 3.029832 1_656
Ag0 Ag1 3.498549 1_566
Ag0 Ag1 3.498549 1_565
Ag0 Ag1 3.498549 1_655
Ag0 Ag1 3.498549 1_656
Ag0 Ag1 3.498549 1_665
Ag0 Ag1 3.498549 1_556
Ag1 Ce0 3.029832 1_655
Ag1 Al0 3.029832 1_455
Ag1 Ce0 3.029832 1_556
Ag1 Ce0 3.029832 1_555
Ag1 Al0 3.029832 1_554
Ag1 Ce0 3.029832 1_565
Ag1 Al0 3.029832 1_555
Ag1 Al0 3.029832 1_545
