# generated using pymatgen
data_Li4V3P8O29
_symmetry_space_group_name_H-M   'P 1'
_cell_length_a   9.74126200
_cell_length_b   9.78583157
_cell_length_c   14.16296821
_cell_angle_alpha   89.96979408
_cell_angle_beta   90.09264521
_cell_angle_gamma   119.61965835
_symmetry_Int_Tables_number   1
_chemical_formula_structural   Li4V3P8O29
_chemical_formula_sum   'Li8 V6 P16 O58'
_cell_volume   1173.67816212
_cell_formula_units_Z   2
loop_
 _symmetry_equiv_pos_site_id
 _symmetry_equiv_pos_as_xyz
  1  'x, y, z'
loop_
 _atom_site_type_symbol
 _atom_site_label
 _atom_site_symmetry_multiplicity
 _atom_site_fract_x
 _atom_site_fract_y
 _atom_site_fract_z
 _atom_site_occupancy
  Li  Li0  1  0.77634200  0.08360100  0.05892800  1
  Li  Li1  1  0.33016300  0.09524500  0.55524700  1
  Li  Li2  1  0.90948500  0.67840900  0.05935100  1
  Li  Li3  1  0.76509300  0.66582800  0.55625700  1
  Li  Li4  1  0.09054900  0.31841300  0.94458400  1
  Li  Li5  1  0.67255000  0.90874400  0.44040100  1
  Li  Li6  1  0.22133200  0.91731400  0.94279100  1
  Li  Li7  1  0.03716000  0.05403200  0.49186500  1
  V  V0  1  0.43028200  0.43261900  0.24724000  1
  V  V1  1  0.56548200  0.56522700  0.75487000  1
  V  V2  1  0.99598300  0.43144100  0.73906400  1
  V  V3  1  0.00395400  0.56595600  0.26085300  1
  V  V4  1  0.56600900  0.00007900  0.24761400  1
  V  V5  1  0.43305100  0.99993100  0.75118600  1
  P  P0  1  0.77389900  0.09168300  0.83830900  1
  P  P1  1  0.91488700  0.21923400  0.34181400  1
  P  P2  1  0.31223000  0.08946000  0.34014700  1
  P  P3  1  0.67369000  0.33937500  0.13272500  1
  P  P4  1  0.66215400  0.33622400  0.62873000  1
  P  P5  1  0.31462700  0.23036600  0.84474800  1
  P  P6  1  0.22791000  0.30826500  0.65908900  1
  P  P7  1  0.91303900  0.67830900  0.84218600  1
  P  P8  1  0.08656900  0.31874800  0.15934800  1
  P  P9  1  0.76842100  0.68511000  0.34184500  1
  P  P10  1  0.68517900  0.76974600  0.15784900  1
  P  P11  1  0.34006200  0.66643000  0.37052100  1
  P  P12  1  0.32418900  0.66138500  0.86715300  1
  P  P13  1  0.68448800  0.90873100  0.65859800  1
  P  P14  1  0.08379800  0.77771200  0.65988000  1
  P  P15  1  0.22462300  0.90602500  0.16135900  1
  O  O0  1  0.76955700  0.97758800  0.56846300  1
  O  O1  1  0.74083500  0.08352100  0.33637700  1
  O  O2  1  0.99987000  0.24639900  0.06917200  1
  O  O3  1  0.92057600  0.25928400  0.83162300  1
  O  O4  1  0.62012400  0.09955100  0.81788200  1
  O  O5  1  0.67132300  0.18550900  0.16802900  1
  O  O6  1  0.46709800  0.08634500  0.32994600  1
  O  O7  1  0.23028100  0.98256300  0.06979400  1
  O  O8  1  0.33718100  0.08422700  0.84295400  1
  O  O9  1  0.81063500  0.32959300  0.67316300  1
  O  O10  1  0.91960000  0.38064300  0.33312200  1
  O  O11  1  0.50990300  0.18908200  0.66449500  1
  O  O12  1  0.67999000  0.35351000  0.02807600  1
  O  O13  1  0.67541300  0.35312700  0.52423800  1
  O  O14  1  0.52698700  0.34172100  0.17815800  1
  O  O15  1  0.90587400  0.52100300  0.81927300  1
  O  O16  1  0.82178500  0.48308700  0.17993200  1
  O  O17  1  0.34218400  0.25993600  0.32689700  1
  O  O18  1  0.20649600  0.20650400  0.75262400  1
  O  O19  1  0.21251300  0.20741200  0.57614400  1
  O  O20  1  0.23497800  0.24440900  0.92971500  1
  O  O21  1  0.47696800  0.38053000  0.82391000  1
  O  O22  1  0.67336100  0.48904300  0.67404900  1
  O  O23  1  0.25496400  0.34196800  0.16278200  1
  O  O24  1  0.61363000  0.52968300  0.32856800  1
  O  O25  1  0.91145000  0.65566000  0.33631300  1
  O  O26  1  0.99199000  0.20171400  0.24456000  1
  O  O27  1  0.99704500  0.19993100  0.42432400  1
  O  O28  1  0.98970900  0.78506100  0.57934100  1
  O  O29  1  0.08928600  0.34494700  0.66340500  1
  O  O30  1  0.38606100  0.46231900  0.67001900  1
  O  O31  1  0.74456700  0.65618500  0.83527500  1
  O  O32  1  0.33260700  0.51855000  0.32102800  1
  O  O33  1  0.52484200  0.61917000  0.17528100  1
  O  O34  1  0.77412800  0.76123600  0.07569600  1
  O  O35  1  0.77404000  0.77059100  0.43147300  1
  O  O36  1  0.78831600  0.79661300  0.25435500  1
  O  O37  1  0.65747200  0.73734900  0.66795200  1
  O  O38  1  0.17808400  0.51542900  0.82185700  1
  O  O39  1  0.09388100  0.47678500  0.18140700  1
  O  O40  1  0.47209600  0.65818700  0.82039400  1
  O  O41  1  0.32403100  0.65144800  0.97181800  1
  O  O42  1  0.33319800  0.65700900  0.47494000  1
  O  O43  1  0.49155800  0.81366000  0.33324400  1
  O  O44  1  0.08376000  0.61847100  0.66909500  1
  O  O45  1  0.18965300  0.67050000  0.32678600  1
  O  O46  1  0.66261300  0.91618500  0.15714000  1
  O  O47  1  0.79333200  0.99882300  0.74982100  1
  O  O48  1  0.76740600  0.01651900  0.93047100  1
  O  O49  1  0.52843400  0.90886100  0.67189100  1
  O  O50  1  0.32694700  0.81429200  0.83051900  1
  O  O51  1  0.37862900  0.89950100  0.18103200  1
  O  O52  1  0.07934300  0.73761400  0.16738700  1
  O  O53  1  0.99638700  0.74980300  0.93325400  1
  O  O54  1  0.01224400  0.79820000  0.75875300  1
  O  O55  1  0.25595700  0.91659000  0.66081900  1
  O  O56  1  0.22409400  0.02300100  0.43018900  1
  O  O57  1  0.20285400  0.99632900  0.25012200  1
loop_
_geom_bond_atom_site_label_1
_geom_bond_atom_site_label_2
_geom_bond_distance
_geom_bond_site_symmetry_2
Li0 O48 1.921651 1_554
Li0 O2 1.967382 1_555
Li0 O46 2.013624 1_545
Li0 O5 2.333217 1_555
Li1 O19 1.962344 1_555
Li1 O56 1.994459 1_555
Li1 O55 2.136873 1_545
Li1 O11 2.169419 1_555
Li2 O34 1.872623 1_555
Li2 O53 1.952730 1_554
Li2 O52 2.111838 1_655
Li2 O16 2.384732 1_555
Li3 O28 1.931407 1_555
Li3 O35 2.022937 1_555
Li3 O37 2.196190 1_555
Li3 O22 2.246825 1_555
Li4 O20 1.885865 1_555
Li4 O2 1.943936 1_456
Li4 O3 2.163624 1_455
Li4 O38 2.416947 1_555
Li5 O0 2.000734 1_555
Li5 O35 2.035416 1_555
Li5 O1 2.101008 1_565
Li5 O43 2.156105 1_555
Li6 O7 1.896430 1_556
Li6 O53 1.988866 1_455
Li6 O8 2.030150 1_565
Li6 O50 2.373928 1_555
Li7 O27 1.911817 1_455
Li7 O19 2.014052 1_555
Li7 O56 2.173293 1_555
Li7 O0 2.571492 1_445
O0 P13 1.490290 1_555
O1 P1 1.555078 1_555
O1 V4 1.940887 1_555
O2 P8 1.500694 1_655
O3 P0 1.557020 1_555
O3 V2 1.968198 1_555
O4 P0 1.564001 1_555
O4 V5 1.844689 1_545
O5 P3 1.575633 1_555
O5 V4 1.943483 1_555
O6 P2 1.530971 1_555
O6 V4 1.951771 1_555
O7 P15 1.484653 1_555
O8 P5 1.550713 1_555
O8 V5 2.002105 1_545
O9 P4 1.606883 1_555
O9 V2 1.827885 1_555
O10 P1 1.562140 1_555
O10 V3 1.881283 1_655
O11 P4 1.555718 1_555
O11 V5 2.031002 1_545
O12 P3 1.487053 1_555
O13 P4 1.487763 1_555
O14 P3 1.578684 1_555
O14 V0 1.862289 1_555
O15 P7 1.540809 1_555
O15 V2 1.895746 1_555
O16 P3 1.580635 1_555
O16 V3 1.921483 1_655
O17 P2 1.556306 1_555
O17 V0 1.852695 1_555
O18 P6 1.607560 1_555
O18 P5 1.618380 1_555
O19 P6 1.493617 1_555
O20 P5 1.475670 1_555
O21 P5 1.565661 1_555
O21 V1 1.851137 1_555
O22 P4 1.581044 1_555
O22 V1 1.936395 1_555
O23 P8 1.541477 1_555
O23 V0 1.905620 1_555
O24 P9 1.534524 1_555
O24 V0 1.932997 1_555
O25 P9 1.558113 1_555
O25 V3 1.873708 1_655
O26 P8 1.605027 1_655
O26 P1 1.619149 1_555
O27 P1 1.479179 1_555
O28 P14 1.485950 1_655
O29 P6 1.560621 1_555
O29 V2 1.858836 1_455
O30 P6 1.540713 1_555
O30 V1 1.941067 1_555
O31 P7 1.548564 1_555
O31 V1 1.895297 1_555
O32 P11 1.577287 1_555
O32 V0 1.870724 1_555
O33 P10 1.548417 1_555
O33 V0 1.886447 1_555
O34 P10 1.478583 1_555
O35 P9 1.506566 1_555
O36 P9 1.598093 1_555
O36 P10 1.637536 1_555
O37 P13 1.569434 1_555
O37 V1 1.914386 1_555
O38 P12 1.570298 1_555
O38 V2 1.936574 1_455
O39 P8 1.544657 1_555
O39 V3 1.885395 1_555
O40 P12 1.600979 1_555
O40 V1 1.827000 1_555
O41 P12 1.485455 1_555
O42 P11 1.481266 1_555
O43 P11 1.559616 1_555
O43 V4 2.004360 1_565
O44 P14 1.563511 1_555
O44 V2 1.875321 1_455
O45 P11 1.608328 1_555
O45 V3 1.832246 1_555
O46 P10 1.553496 1_555
O46 V4 1.992531 1_565
O47 P0 1.613767 1_565
O47 P13 1.625871 1_555
O48 P0 1.483936 1_555
O49 P13 1.532703 1_555
O49 V5 1.934359 1_555
O50 P12 1.571112 1_555
O50 V5 1.943321 1_555
O51 P15 1.557450 1_555
O51 V4 1.846434 1_565
O52 P15 1.555935 1_555
O52 V3 1.973528 1_555
O53 P7 1.499440 1_555
O54 P7 1.608785 1_455
O54 P14 1.621287 1_555
O55 P14 1.551346 1_555
O55 V5 1.970395 1_555
O56 P2 1.495696 1_555
O57 P15 1.610461 1_555
O57 P2 1.621254 1_565
