# generated using pymatgen
data_Ti2FeIr
_symmetry_space_group_name_H-M   'P 1'
_cell_length_a   4.32141952
_cell_length_b   4.32141952
_cell_length_c   4.32141952
_cell_angle_alpha   60.00000000
_cell_angle_beta   60.00000000
_cell_angle_gamma   60.00000000
_symmetry_Int_Tables_number   1
_chemical_formula_structural   Ti2FeIr
_chemical_formula_sum   'Ti2 Fe1 Ir1'
_cell_volume   57.06427336
_cell_formula_units_Z   1
loop_
 _symmetry_equiv_pos_site_id
 _symmetry_equiv_pos_as_xyz
  1  'x, y, z'
loop_
 _atom_site_type_symbol
 _atom_site_label
 _atom_site_symmetry_multiplicity
 _atom_site_fract_x
 _atom_site_fract_y
 _atom_site_fract_z
 _atom_site_occupancy
  Ti  Ti0  1  -0.00000000  0.00000000  0.00000000  1
  Ti  Ti1  1  0.50000000  0.50000000  0.50000000  1
  Fe  Fe0  1  0.24999900  0.24999900  0.24999900  1
  Ir  Ir0  1  0.75000000  0.75000000  0.75000000  1
loop_
_geom_bond_atom_site_label_1
_geom_bond_atom_site_label_2
_geom_bond_distance
_geom_bond_site_symmetry_2
Ti0 Ti1 3.055705 1_455
Ti0 Ti1 3.055705 1_545
Ti0 Ti1 3.055705 1_445
Ti0 Ti1 3.055705 1_544
Ti0 Ti1 3.055705 1_454
Ti0 Ti1 3.055705 1_554
Fe0 Ti0 2.646308 1_555
Fe0 Ti1 2.646315 1_545
Fe0 Ti1 2.646315 1_554
Fe0 Ti1 2.646315 1_455
Fe0 Ti0 2.646322 1_556
Fe0 Ti0 2.646322 1_655
Fe0 Ti0 2.646322 1_565
Fe0 Ti1 2.646329 1_555
Fe0 Ir0 3.055699 1_454
Fe0 Ir0 3.055699 1_544
Fe0 Ir0 3.055699 1_445
Fe0 Ir0 3.055711 1_554
Fe0 Ir0 3.055711 1_545
Fe0 Ir0 3.055711 1_455
Ir0 Ti0 2.646318 1_566
Ir0 Ti1 2.646318 1_655
Ir0 Ti0 2.646318 1_666
Ir0 Ti1 2.646318 1_555
Ir0 Ti1 2.646318 1_556
Ir0 Ti0 2.646318 1_665
Ir0 Ti0 2.646318 1_656
Ir0 Ti1 2.646318 1_565
