# generated using pymatgen
data_Li7V(O2F)2
_symmetry_space_group_name_H-M   'P 1'
_cell_length_a   5.52295468
_cell_length_b   10.41518079
_cell_length_c   9.85261856
_cell_angle_alpha   107.60596281
_cell_angle_beta   90.33596520
_cell_angle_gamma   90.82342788
_symmetry_Int_Tables_number   1
_chemical_formula_structural   Li7V(O2F)2
_chemical_formula_sum   'Li28 V4 O16 F8'
_cell_volume   540.11424011
_cell_formula_units_Z   4
loop_
 _symmetry_equiv_pos_site_id
 _symmetry_equiv_pos_as_xyz
  1  'x, y, z'
loop_
 _atom_site_type_symbol
 _atom_site_label
 _atom_site_symmetry_multiplicity
 _atom_site_fract_x
 _atom_site_fract_y
 _atom_site_fract_z
 _atom_site_occupancy
  Li  Li0  1  0.18078800  0.14844500  0.23593000  1
  Li  Li1  1  0.68091300  0.64855900  0.23594700  1
  Li  Li2  1  0.17736800  0.67899700  0.74894200  1
  Li  Li3  1  0.67733800  0.17895400  0.74889800  1
  Li  Li4  1  0.21222000  0.66796200  0.38136200  1
  Li  Li5  1  0.71226100  0.16803200  0.38136300  1
  Li  Li6  1  0.30016000  0.33735300  0.12831500  1
  Li  Li7  1  0.80024900  0.83742600  0.12842500  1
  Li  Li8  1  0.38326200  0.35481100  0.45431400  1
  Li  Li9  1  0.88351700  0.85484100  0.45431600  1
  Li  Li10  1  0.34917500  0.82138000  0.95208200  1
  Li  Li11  1  0.84908200  0.32142700  0.95205900  1
  Li  Li12  1  0.49040700  0.51100600  0.68497700  1
  Li  Li13  1  0.99042200  0.01100800  0.68498900  1
  Li  Li14  1  0.62510800  0.17446300  0.05084500  1
  Li  Li15  1  0.12514200  0.67461800  0.05081500  1
  Li  Li16  1  0.62972200  0.67005400  0.54912200  1
  Li  Li17  1  0.12992700  0.17002100  0.54914300  1
  Li  Li18  1  0.69327200  0.67587500  0.87821800  1
  Li  Li19  1  0.19321400  0.17574900  0.87817000  1
  Li  Li20  1  0.80798500  0.31187000  0.61512600  1
  Li  Li21  1  0.30799700  0.81193500  0.61513900  1
  Li  Li22  1  0.79247800  0.37230700  0.26602900  1
  Li  Li23  1  0.29262100  0.87200200  0.26590300  1
  Li  Li24  1  0.84892800  0.81582200  0.74545000  1
  Li  Li25  1  0.34889800  0.31583800  0.74550200  1
  Li  Li26  1  0.99908000  0.48301200  0.80759500  1
  Li  Li27  1  0.49911400  0.98303600  0.80756500  1
  V  V0  1  0.02802300  0.00397000  0.99048300  1
  V  V1  1  0.99482800  0.49912600  0.52523800  1
  V  V2  1  0.52805500  0.50406700  0.99051600  1
  V  V3  1  0.49497900  0.99922800  0.52517500  1
  O  O0  1  0.17494000  0.87888800  0.80474100  1
  O  O1  1  0.67490700  0.37893800  0.80477900  1
  O  O2  1  0.28862400  0.13501500  0.04560200  1
  O  O3  1  0.78851600  0.63505400  0.04562300  1
  O  O4  1  0.30038100  0.60930400  0.54958700  1
  O  O5  1  0.80048700  0.10927600  0.54956900  1
  O  O6  1  0.34573200  0.61356400  0.88403900  1
  O  O7  1  0.84562400  0.11352500  0.88399600  1
  O  O8  1  0.62621600  0.38184000  0.10185100  1
  O  O9  1  0.12629100  0.88174500  0.10175300  1
  O  O10  1  0.71934300  0.37058100  0.45560500  1
  O  O11  1  0.21954100  0.87049100  0.45556200  1
  O  O12  1  0.83899100  0.61702000  0.69484200  1
  O  O13  1  0.33909500  0.11693100  0.69479500  1
  O  O14  1  0.15756600  0.37208800  0.61882300  1
  O  O15  1  0.65769000  0.87206200  0.61874600  1
  F  F0  1  0.85933300  0.62849200  0.39151500  1
  F  F1  1  0.35940800  0.12848600  0.39146500  1
  F  F2  1  0.15226600  0.36669100  0.30978800  1
  F  F3  1  0.65244100  0.86676200  0.30990000  1
  F  F4  1  0.68687500  0.87014800  0.93945300  1
  F  F5  1  0.18679800  0.37014100  0.93940500  1
  F  F6  1  0.83616100  0.12973200  0.19029400  1
  F  F7  1  0.33624400  0.63003100  0.19031600  1
loop_
_geom_bond_atom_site_label_1
_geom_bond_atom_site_label_2
_geom_bond_distance
_geom_bond_site_symmetry_2
Li0 O2 1.935865 1_555
Li1 O3 1.935255 1_555
Li2 O6 1.911349 1_555
Li2 O12 1.984656 1_455
Li2 O0 1.986262 1_555
Li2 O4 2.003439 1_555
Li2 Li21 2.293931 1_555
Li2 Li24 2.329302 1_455
Li2 Li26 2.476408 1_455
Li3 O7 1.911123 1_555
Li3 O13 1.984079 1_555
Li3 O1 1.987164 1_555
Li3 O5 2.003467 1_555
Li4 O4 1.992267 1_555
Li4 O11 2.012434 1_555
Li5 O5 1.992755 1_555
Li5 O10 2.012645 1_555
Li6 O8 1.892123 1_555
Li6 O2 2.016403 1_555
Li7 O9 1.892019 1_655
Li7 O3 2.016822 1_555
Li8 O10 1.860690 1_555
Li8 O14 2.016682 1_555
Li8 O4 2.578968 1_555
Li9 O11 1.860298 1_655
Li9 O15 2.016611 1_555
Li9 O5 2.578562 1_565
Li10 O9 1.888878 1_556
Li10 O0 1.979482 1_555
Li10 O6 2.062882 1_555
Li10 Li2 2.290664 1_555
Li10 Li15 2.381807 1_556
Li10 Li18 2.422749 1_555
Li11 O8 1.889680 1_556
Li11 O1 1.978844 1_555
Li11 O7 2.063734 1_555
Li11 Li3 2.291018 1_555
Li11 Li14 2.383552 1_556
Li11 Li19 2.423915 1_655
Li12 O6 2.098007 1_555
Li12 O4 2.183950 1_555
Li12 O12 2.192450 1_555
Li12 O14 2.288332 1_555
Li12 O1 2.309109 1_555
Li12 Li18 2.402249 1_555
Li12 Li25 2.406538 1_555
Li12 Li2 2.424922 1_555
Li12 Li8 2.425191 1_555
Li12 Li16 2.538599 1_555
Li12 O10 2.632904 1_555
Li12 Li20 2.665879 1_555
Li13 O7 2.097751 1_555
Li13 O5 2.183723 1_555
Li13 O13 2.192492 1_655
Li13 O15 2.288089 1_545
Li13 O0 2.309224 1_645
Li13 Li19 2.401104 1_655
Li13 Li24 2.406365 1_545
Li13 Li3 2.424771 1_555
Li13 Li9 2.424848 1_545
Li13 Li17 2.538552 1_655
Li13 O11 2.634068 1_645
Li13 Li21 2.665403 1_645
Li14 O2 1.894508 1_555
Li14 O7 2.000760 1_554
Li14 O8 2.064119 1_555
Li14 Li27 2.693365 1_544
Li15 O3 1.895532 1_455
Li15 O6 2.000582 1_554
Li15 O9 2.061633 1_555
Li15 Li26 2.693935 1_454
Li16 O4 1.917722 1_555
Li16 O15 2.009319 1_555
Li16 O12 2.044716 1_555
Li16 Li21 2.295990 1_555
Li16 Li24 2.378130 1_555
Li17 O5 1.918180 1_455
Li17 O14 2.009804 1_555
Li17 O13 2.044164 1_555
Li17 Li20 2.296710 1_455
Li17 Li25 2.377873 1_555
Li18 O3 1.896938 1_556
Li18 O12 1.910236 1_555
Li18 O6 2.024042 1_555
Li18 Li24 2.388581 1_555
Li18 Li26 2.576320 1_555
Li19 O2 1.896995 1_556
Li19 O13 1.910598 1_555
Li19 O7 2.024024 1_455
Li19 Li25 2.389053 1_555
Li19 Li27 2.575548 1_545
Li20 O10 1.914366 1_555
Li20 O1 1.939328 1_555
Li20 O5 2.010955 1_555
Li20 O14 2.018146 1_655
Li20 Li3 2.293553 1_555
Li20 Li5 2.388329 1_555
Li20 Li26 2.401005 1_555
Li21 O11 1.913688 1_555
Li21 O0 1.938763 1_555
Li21 O4 2.011324 1_555
Li21 O15 2.018532 1_555
Li21 Li4 2.388964 1_555
Li21 Li27 2.400606 1_555
Li22 O8 1.884672 1_555
Li22 O10 1.918640 1_555
Li23 O9 1.885312 1_555
Li23 O11 1.918701 1_555
Li24 O15 1.860577 1_555
Li24 O0 1.932933 1_655
Li24 O12 1.977551 1_555
Li25 O14 1.860738 1_555
Li25 O1 1.932974 1_555
Li25 O13 1.978541 1_555
Li25 Li3 2.329503 1_555
Li26 O1 2.075251 1_555
Li26 O14 2.075670 1_655
Li26 O12 2.219419 1_555
Li26 O6 2.317399 1_655
Li26 O3 2.682970 1_556
Li27 O0 2.075634 1_555
Li27 O15 2.076376 1_555
Li27 O13 2.218453 1_565
Li27 O7 2.316428 1_565
Li27 Li3 2.475718 1_565
Li27 O2 2.682632 1_566
O0 V0 2.076100 1_565
O1 V2 2.076100 1_555
O2 V0 1.927509 1_554
O3 V2 1.926564 1_554
O4 V1 1.998816 1_455
O5 V3 1.997871 1_545
O6 V2 2.039481 1_555
O7 V0 2.040194 1_655
O8 V2 1.993835 1_554
O9 V0 1.993507 1_564
O10 V1 1.987869 1_555
O11 V3 1.988764 1_555
O12 V1 1.961342 1_555
O13 V3 1.960820 1_545
O14 V1 2.042342 1_455
O15 V3 2.043241 1_555
F0 Li1 1.883091 1_555
F0 Li16 1.959361 1_555
F0 Li4 1.995408 1_655
F0 Li9 2.250756 1_555
F0 V1 2.280914 1_555
F0 Li22 2.599039 1_555
F1 Li0 1.882982 1_555
F1 Li17 1.959404 1_555
F1 Li5 1.995330 1_555
F1 Li8 2.250418 1_555
F1 V3 2.280091 1_545
F1 Li23 2.601858 1_545
F2 Li6 1.910821 1_555
F2 Li8 1.939176 1_555
F2 Li22 2.036269 1_455
F2 Li0 2.175365 1_555
F2 V1 2.334429 1_455
F3 Li7 1.910634 1_555
F3 Li9 1.938779 1_555
F3 Li23 2.036530 1_555
F3 Li1 2.174936 1_555
F3 V3 2.333321 1_555
F4 Li18 1.929552 1_555
F4 Li10 1.940568 1_555
F4 Li24 2.038419 1_555
F4 Li7 2.085928 1_556
F4 Li27 2.256052 1_555
F4 V0 2.287992 1_665
F5 Li19 1.930738 1_555
F5 Li11 1.940539 1_455
F5 Li25 2.037691 1_555
F5 Li6 2.085635 1_556
F5 Li26 2.255256 1_455
F5 V2 2.289081 1_555
F6 Li5 1.933902 1_555
F6 Li0 1.946592 1_655
F6 Li14 1.961505 1_555
F6 V0 2.284424 1_654
F6 Li22 2.424295 1_555
F7 Li4 1.934267 1_555
F7 Li1 1.946779 1_555
F7 Li15 1.961373 1_555
F7 V2 2.284888 1_554
F7 Li23 2.418287 1_555
