# generated using pymatgen
data_Y11In9Ni4
_symmetry_space_group_name_H-M   'P 1'
_cell_length_a   25.97011981
_cell_length_b   25.97011981
_cell_length_c   7.30242480
_cell_angle_alpha   90.00000000
_cell_angle_beta   90.00000000
_cell_angle_gamma   112.70577888
_symmetry_Int_Tables_number   1
_chemical_formula_structural   Y11In9Ni4
_chemical_formula_sum   'Y88 In72 Ni32'
_cell_volume   4543.40006622
_cell_formula_units_Z   8
loop_
 _symmetry_equiv_pos_site_id
 _symmetry_equiv_pos_as_xyz
  1  'x, y, z'
loop_
 _atom_site_type_symbol
 _atom_site_label
 _atom_site_symmetry_multiplicity
 _atom_site_fract_x
 _atom_site_fract_y
 _atom_site_fract_z
 _atom_site_occupancy
  Y  Y0_0  1  0.03949038  0.20789088  0.00000000  1
  Y  Y0_1  1  0.03949038  0.20789088  0.50000000  1
  Y  Y0_2  1  0.03949038  0.70789088  0.00000000  1
  Y  Y0_3  1  0.03949038  0.70789088  0.50000000  1
  Y  Y0_4  1  0.53949039  0.20789088  0.00000000  1
  Y  Y0_5  1  0.53949039  0.20789088  0.50000000  1
  Y  Y0_6  1  0.53949038  0.70789088  0.00000000  1
  Y  Y0_7  1  0.53949038  0.70789088  0.50000000  1
  Y  Y1_0  1  0.46050961  0.29210913  0.00000000  1
  Y  Y1_1  1  0.46050961  0.29210913  0.50000000  1
  Y  Y1_2  1  0.46050961  0.79210913  0.00000000  1
  Y  Y1_3  1  0.46050961  0.79210913  0.50000000  1
  Y  Y1_4  1  0.96050961  0.29210913  0.00000000  1
  Y  Y1_5  1  0.96050961  0.29210913  0.50000000  1
  Y  Y1_6  1  0.96050961  0.79210913  0.00000000  1
  Y  Y1_7  1  0.96050961  0.79210913  0.50000000  1
  Y  Y2_0  1  0.20789088  0.03949039  0.00000000  1
  Y  Y2_1  1  0.20789088  0.03949039  0.50000000  1
  Y  Y2_2  1  0.20789087  0.53949039  0.00000000  1
  Y  Y2_3  1  0.20789087  0.53949039  0.50000000  1
  Y  Y2_4  1  0.70789088  0.03949039  0.00000000  1
  Y  Y2_5  1  0.70789088  0.03949039  0.50000000  1
  Y  Y2_6  1  0.70789087  0.53949039  0.00000000  1
  Y  Y2_7  1  0.70789087  0.53949039  0.50000000  1
  Y  Y3_0  1  0.29210912  0.46050961  0.00000000  1
  Y  Y3_1  1  0.29210912  0.46050961  0.50000000  1
  Y  Y3_2  1  0.29210912  0.96050962  0.00000000  1
  Y  Y3_3  1  0.29210912  0.96050962  0.50000000  1
  Y  Y3_4  1  0.79210912  0.46050962  0.00000000  1
  Y  Y3_5  1  0.79210912  0.46050962  0.50000000  1
  Y  Y3_6  1  0.79210912  0.96050962  0.00000000  1
  Y  Y3_7  1  0.79210912  0.96050962  0.50000000  1
  Y  Y4_0  1  0.31250102  0.18749898  0.00000000  1
  Y  Y4_1  1  0.31250102  0.18749898  0.50000000  1
  Y  Y4_2  1  0.31250102  0.68749898  0.00000000  1
  Y  Y4_3  1  0.31250102  0.68749898  0.50000000  1
  Y  Y4_4  1  0.81250102  0.18749898  0.00000000  1
  Y  Y4_5  1  0.81250102  0.18749898  0.50000000  1
  Y  Y4_6  1  0.81250102  0.68749898  0.00000000  1
  Y  Y4_7  1  0.81250102  0.68749898  0.50000000  1
  Y  Y5_0  1  0.18749897  0.31250102  0.00000000  1
  Y  Y5_1  1  0.18749897  0.31250102  0.50000000  1
  Y  Y5_2  1  0.18749897  0.81250102  0.00000000  1
  Y  Y5_3  1  0.18749897  0.81250102  0.50000000  1
  Y  Y5_4  1  0.68749898  0.31250102  0.00000000  1
  Y  Y5_5  1  0.68749898  0.31250102  0.50000000  1
  Y  Y5_6  1  0.68749898  0.81250103  0.00000000  1
  Y  Y5_7  1  0.68749898  0.81250103  0.50000000  1
  Y  Y6_0  1  0.41928407  0.08071593  0.00000000  1
  Y  Y6_1  1  0.41928407  0.08071593  0.50000000  1
  Y  Y6_2  1  0.41928407  0.58071593  0.00000000  1
  Y  Y6_3  1  0.41928407  0.58071593  0.50000000  1
  Y  Y6_4  1  0.91928407  0.08071592  0.00000000  1
  Y  Y6_5  1  0.91928407  0.08071592  0.50000000  1
  Y  Y6_6  1  0.91928407  0.58071593  0.00000000  1
  Y  Y6_7  1  0.91928407  0.58071593  0.50000000  1
  Y  Y7_0  1  0.08071592  0.41928408  0.00000000  1
  Y  Y7_1  1  0.08071592  0.41928408  0.50000000  1
  Y  Y7_2  1  0.08071592  0.91928408  0.00000000  1
  Y  Y7_3  1  0.08071592  0.91928408  0.50000000  1
  Y  Y7_4  1  0.58071592  0.41928408  0.00000000  1
  Y  Y7_5  1  0.58071592  0.41928408  0.50000000  1
  Y  Y7_6  1  0.58071593  0.91928408  0.00000000  1
  Y  Y7_7  1  0.58071593  0.91928408  0.50000000  1
  Y  Y8_0  1  0.00000000  0.00000000  0.00000000  1
  Y  Y8_1  1  0.00000000  0.00000000  0.50000000  1
  Y  Y8_2  1  0.00000000  0.50000000  0.00000000  1
  Y  Y8_3  1  0.00000000  0.50000000  0.50000000  1
  Y  Y8_4  1  0.50000000  0.00000000  0.00000000  1
  Y  Y8_5  1  0.50000000  0.00000000  0.50000000  1
  Y  Y8_6  1  0.50000000  0.50000000  0.00000000  1
  Y  Y8_7  1  0.50000000  0.50000000  0.50000000  1
  Y  Y9_0  1  0.15591854  0.15591855  0.00000000  1
  Y  Y9_1  1  0.15591854  0.15591855  0.50000000  1
  Y  Y9_2  1  0.15591854  0.65591855  0.00000000  1
  Y  Y9_3  1  0.15591854  0.65591855  0.50000000  1
  Y  Y9_4  1  0.65591855  0.15591854  0.00000000  1
  Y  Y9_5  1  0.65591855  0.15591854  0.50000000  1
  Y  Y9_6  1  0.65591855  0.65591855  0.00000000  1
  Y  Y9_7  1  0.65591855  0.65591855  0.50000000  1
  Y  Y10_0  1  0.34408145  0.34408146  0.00000000  1
  Y  Y10_1  1  0.34408145  0.34408146  0.50000000  1
  Y  Y10_2  1  0.34408145  0.84408146  0.00000000  1
  Y  Y10_3  1  0.34408145  0.84408146  0.50000000  1
  Y  Y10_4  1  0.84408145  0.34408146  0.00000000  1
  Y  Y10_5  1  0.84408145  0.34408146  0.50000000  1
  Y  Y10_6  1  0.84408145  0.84408146  0.00000000  1
  Y  Y10_7  1  0.84408145  0.84408146  0.50000000  1
  In  In0_0  1  0.42021444  0.18464305  0.25000000  1
  In  In0_1  1  0.42021444  0.18464305  0.75000000  1
  In  In0_2  1  0.42021444  0.68464305  0.25000000  1
  In  In0_3  1  0.42021444  0.68464305  0.75000000  1
  In  In0_4  1  0.92021444  0.18464305  0.25000000  1
  In  In0_5  1  0.92021444  0.18464305  0.75000000  1
  In  In0_6  1  0.92021444  0.68464305  0.25000000  1
  In  In0_7  1  0.92021444  0.68464305  0.75000000  1
  In  In1_0  1  0.07978556  0.31535695  0.25000000  1
  In  In1_1  1  0.07978556  0.31535695  0.75000000  1
  In  In1_2  1  0.07978556  0.81535695  0.25000000  1
  In  In1_3  1  0.07978556  0.81535695  0.75000000  1
  In  In1_4  1  0.57978556  0.31535695  0.25000000  1
  In  In1_5  1  0.57978556  0.31535695  0.75000000  1
  In  In1_6  1  0.57978556  0.81535695  0.25000000  1
  In  In1_7  1  0.57978556  0.81535695  0.75000000  1
  In  In2_0  1  0.18464305  0.42021444  0.25000000  1
  In  In2_1  1  0.18464305  0.42021444  0.75000000  1
  In  In2_2  1  0.18464305  0.92021444  0.25000000  1
  In  In2_3  1  0.18464305  0.92021444  0.75000000  1
  In  In2_4  1  0.68464305  0.42021444  0.25000000  1
  In  In2_5  1  0.68464305  0.42021444  0.75000000  1
  In  In2_6  1  0.68464305  0.92021444  0.25000000  1
  In  In2_7  1  0.68464305  0.92021444  0.75000000  1
  In  In3_0  1  0.31535695  0.07978556  0.25000000  1
  In  In3_1  1  0.31535695  0.07978556  0.75000000  1
  In  In3_2  1  0.31535695  0.57978556  0.25000000  1
  In  In3_3  1  0.31535695  0.57978556  0.75000000  1
  In  In3_4  1  0.81535695  0.07978556  0.25000000  1
  In  In3_5  1  0.81535695  0.07978556  0.75000000  1
  In  In3_6  1  0.81535695  0.57978556  0.25000000  1
  In  In3_7  1  0.81535695  0.57978556  0.75000000  1
  In  In4_0  1  0.03870696  0.10968249  0.25000000  1
  In  In4_1  1  0.03870696  0.10968249  0.75000000  1
  In  In4_2  1  0.03870696  0.60968249  0.25000000  1
  In  In4_3  1  0.03870696  0.60968249  0.75000000  1
  In  In4_4  1  0.53870696  0.10968249  0.25000000  1
  In  In4_5  1  0.53870696  0.10968249  0.75000000  1
  In  In4_6  1  0.53870696  0.60968249  0.25000000  1
  In  In4_7  1  0.53870696  0.60968249  0.75000000  1
  In  In5_0  1  0.46129304  0.39031751  0.25000000  1
  In  In5_1  1  0.46129304  0.39031751  0.75000000  1
  In  In5_2  1  0.46129304  0.89031751  0.25000000  1
  In  In5_3  1  0.46129304  0.89031751  0.75000000  1
  In  In5_4  1  0.96129304  0.39031751  0.25000000  1
  In  In5_5  1  0.96129304  0.39031751  0.75000000  1
  In  In5_6  1  0.96129304  0.89031751  0.25000000  1
  In  In5_7  1  0.96129304  0.89031751  0.75000000  1
  In  In6_0  1  0.10968249  0.03870696  0.25000000  1
  In  In6_1  1  0.10968249  0.03870696  0.75000000  1
  In  In6_2  1  0.10968249  0.53870696  0.25000000  1
  In  In6_3  1  0.10968249  0.53870696  0.75000000  1
  In  In6_4  1  0.60968249  0.03870696  0.25000000  1
  In  In6_5  1  0.60968249  0.03870696  0.75000000  1
  In  In6_6  1  0.60968249  0.53870696  0.25000000  1
  In  In6_7  1  0.60968249  0.53870696  0.75000000  1
  In  In7_0  1  0.39031751  0.46129304  0.25000000  1
  In  In7_1  1  0.39031751  0.46129304  0.75000000  1
  In  In7_2  1  0.39031751  0.96129304  0.25000000  1
  In  In7_3  1  0.39031751  0.96129304  0.75000000  1
  In  In7_4  1  0.89031751  0.46129304  0.25000000  1
  In  In7_5  1  0.89031751  0.46129304  0.75000000  1
  In  In7_6  1  0.89031751  0.96129304  0.25000000  1
  In  In7_7  1  0.89031751  0.96129304  0.75000000  1
  In  In8_0  1  0.25000000  0.25000000  0.25000000  1
  In  In8_1  1  0.25000000  0.25000000  0.75000000  1
  In  In8_2  1  0.25000000  0.75000000  0.25000000  1
  In  In8_3  1  0.25000000  0.75000000  0.75000000  1
  In  In8_4  1  0.75000000  0.25000000  0.25000000  1
  In  In8_5  1  0.75000000  0.25000000  0.75000000  1
  In  In8_6  1  0.75000000  0.75000000  0.25000000  1
  In  In8_7  1  0.75000000  0.75000000  0.75000000  1
  Ni  Ni0_0  1  0.12297092  0.22442150  0.25000000  1
  Ni  Ni0_1  1  0.12297092  0.22442150  0.75000000  1
  Ni  Ni0_2  1  0.12297092  0.72442150  0.25000000  1
  Ni  Ni0_3  1  0.12297092  0.72442150  0.75000000  1
  Ni  Ni0_4  1  0.62297092  0.22442149  0.25000000  1
  Ni  Ni0_5  1  0.62297092  0.22442149  0.75000000  1
  Ni  Ni0_6  1  0.62297092  0.72442150  0.25000000  1
  Ni  Ni0_7  1  0.62297092  0.72442150  0.75000000  1
  Ni  Ni1_0  1  0.37702907  0.27557850  0.25000000  1
  Ni  Ni1_1  1  0.37702907  0.27557850  0.75000000  1
  Ni  Ni1_2  1  0.37702907  0.77557851  0.25000000  1
  Ni  Ni1_3  1  0.37702907  0.77557851  0.75000000  1
  Ni  Ni1_4  1  0.87702907  0.27557850  0.25000000  1
  Ni  Ni1_5  1  0.87702907  0.27557850  0.75000000  1
  Ni  Ni1_6  1  0.87702907  0.77557851  0.25000000  1
  Ni  Ni1_7  1  0.87702907  0.77557851  0.75000000  1
  Ni  Ni2_0  1  0.22442149  0.12297093  0.25000000  1
  Ni  Ni2_1  1  0.22442149  0.12297093  0.75000000  1
  Ni  Ni2_2  1  0.22442149  0.62297093  0.25000000  1
  Ni  Ni2_3  1  0.22442149  0.62297093  0.75000000  1
  Ni  Ni2_4  1  0.72442149  0.12297093  0.25000000  1
  Ni  Ni2_5  1  0.72442149  0.12297093  0.75000000  1
  Ni  Ni2_6  1  0.72442149  0.62297093  0.25000000  1
  Ni  Ni2_7  1  0.72442149  0.62297093  0.75000000  1
  Ni  Ni3_0  1  0.27557850  0.37702908  0.25000000  1
  Ni  Ni3_1  1  0.27557850  0.37702908  0.75000000  1
  Ni  Ni3_2  1  0.27557850  0.87702908  0.25000000  1
  Ni  Ni3_3  1  0.27557850  0.87702908  0.75000000  1
  Ni  Ni3_4  1  0.77557851  0.37702908  0.25000000  1
  Ni  Ni3_5  1  0.77557851  0.37702908  0.75000000  1
  Ni  Ni3_6  1  0.77557851  0.87702908  0.25000000  1
  Ni  Ni3_7  1  0.77557851  0.87702908  0.75000000  1
loop_
_geom_bond_atom_site_label_1
_geom_bond_atom_site_label_2
_geom_bond_distance
_geom_bond_site_symmetry_2
Y0_0 Y1_4 3.529044 1_455
Y0_0 Y6_4 3.562861 1_455
Y0_1 Y1_5 3.529044 1_455
Y0_1 Y6_5 3.562861 1_455
Y0_2 Y1_6 3.529044 1_455
Y0_2 Y6_6 3.562861 1_455
Y0_3 Y1_7 3.529044 1_455
Y0_3 Y6_7 3.562861 1_455
Y0_4 Y1_0 3.529044 1_555
Y0_4 Y6_0 3.562861 1_555
Y0_5 Y1_1 3.529044 1_555
Y0_5 Y6_1 3.562861 1_555
Y0_6 Y1_2 3.529044 1_555
Y0_6 Y6_2 3.562861 1_555
Y0_7 Y1_3 3.529044 1_555
Y0_7 Y6_3 3.562861 1_555
Y1_0 Y7_4 3.562861 1_555
Y1_1 Y7_5 3.562861 1_555
Y1_2 Y7_6 3.562861 1_555
Y1_3 Y7_7 3.562861 1_555
Y1_4 Y7_0 3.562861 1_655
Y1_5 Y7_1 3.562861 1_655
Y1_6 Y7_2 3.562861 1_655
Y1_7 Y7_3 3.562861 1_655
Y2_0 Y3_2 3.529044 1_545
Y2_0 Y7_2 3.562861 1_545
Y2_1 Y3_3 3.529044 1_545
Y2_1 Y7_3 3.562861 1_545
Y2_2 Y3_0 3.529044 1_555
Y2_2 Y7_0 3.562861 1_555
Y2_3 Y3_1 3.529044 1_555
Y2_3 Y7_1 3.562861 1_555
Y2_4 Y3_6 3.529044 1_545
Y2_4 Y7_6 3.562861 1_545
Y2_5 Y3_7 3.529044 1_545
Y2_5 Y7_7 3.562861 1_545
Y2_6 Y3_4 3.529044 1_555
Y2_6 Y7_4 3.562861 1_555
Y2_7 Y3_5 3.529044 1_555
Y2_7 Y7_5 3.562861 1_555
Y3_0 Y6_2 3.562861 1_555
Y3_1 Y6_3 3.562861 1_555
Y3_2 Y6_0 3.562861 1_565
Y3_3 Y6_1 3.562861 1_565
Y3_4 Y6_6 3.562861 1_555
Y3_5 Y6_7 3.562861 1_555
Y3_6 Y6_4 3.562861 1_565
Y3_7 Y6_5 3.562861 1_565
Y6_0 Y8_4 3.490034 1_555
Y6_0 Y6_1 3.651212 1_555
Y6_0 Y6_1 3.651212 1_554
Y6_1 Y8_5 3.490034 1_555
Y6_2 Y8_6 3.490034 1_555
Y6_2 Y6_3 3.651212 1_554
Y6_2 Y6_3 3.651212 1_555
Y6_3 Y8_7 3.490034 1_555
Y6_4 Y8_0 3.490034 1_655
Y6_4 Y6_5 3.651212 1_555
Y6_4 Y6_5 3.651212 1_554
Y6_5 Y8_1 3.490034 1_655
Y6_6 Y8_2 3.490034 1_655
Y6_6 Y6_7 3.651212 1_554
Y6_6 Y6_7 3.651212 1_555
Y6_7 Y8_3 3.490034 1_655
Y7_0 Y8_2 3.490034 1_555
Y7_0 Y7_1 3.651212 1_555
Y7_0 Y7_1 3.651212 1_554
Y7_1 Y8_3 3.490034 1_555
Y7_2 Y8_0 3.490034 1_565
Y7_2 Y7_3 3.651212 1_555
Y7_2 Y7_3 3.651212 1_554
Y7_3 Y8_1 3.490034 1_565
Y7_4 Y8_6 3.490034 1_555
Y7_4 Y7_5 3.651212 1_554
Y7_4 Y7_5 3.651212 1_555
Y7_5 Y8_7 3.490034 1_555
Y7_6 Y8_4 3.490034 1_565
Y7_6 Y7_7 3.651212 1_555
Y7_6 Y7_7 3.651212 1_554
Y7_7 Y8_5 3.490034 1_565
Y8_0 Y8_1 3.651212 1_554
Y8_0 Y8_1 3.651212 1_555
Y8_2 Y8_3 3.651212 1_555
Y8_2 Y8_3 3.651212 1_554
Y8_4 Y8_5 3.651212 1_555
Y8_4 Y8_5 3.651212 1_554
Y8_6 Y8_7 3.651212 1_555
Y8_6 Y8_7 3.651212 1_554
In0_0 Ni1_0 2.979887 1_555
In0_0 In3_0 3.017678 1_555
In0_0 Y1_0 3.156327 1_555
In0_0 Y1_1 3.156327 1_555
In0_0 Y6_0 3.250797 1_555
In0_0 Y6_1 3.250797 1_555
In0_0 Y4_0 3.365051 1_555
In0_0 Y4_1 3.365051 1_555
In0_0 Y0_5 3.442204 1_555
In0_0 Y0_4 3.442204 1_555
In0_0 In0_1 3.651212 1_554
In0_0 In0_1 3.651212 1_555
In0_1 Ni1_1 2.979887 1_555
In0_1 In3_1 3.017678 1_555
In0_1 Y1_0 3.156327 1_556
In0_1 Y1_1 3.156327 1_555
In0_1 Y6_0 3.250797 1_556
In0_1 Y6_1 3.250797 1_555
In0_1 Y4_0 3.365051 1_556
In0_1 Y4_1 3.365051 1_555
In0_1 Y0_4 3.442204 1_556
In0_1 Y0_5 3.442204 1_555
In0_2 Ni1_2 2.979887 1_555
In0_2 In3_2 3.017678 1_555
In0_2 Y1_3 3.156327 1_555
In0_2 Y1_2 3.156327 1_555
In0_2 Y6_3 3.250797 1_555
In0_2 Y6_2 3.250797 1_555
In0_2 Y4_2 3.365051 1_555
In0_2 Y4_3 3.365051 1_555
In0_2 Y0_7 3.442204 1_555
In0_2 Y0_6 3.442204 1_555
In0_2 In0_3 3.651212 1_555
In0_2 In0_3 3.651212 1_554
In0_3 Ni1_3 2.979887 1_555
In0_3 In3_3 3.017678 1_555
In0_3 Y1_2 3.156327 1_556
In0_3 Y1_3 3.156327 1_555
In0_3 Y6_3 3.250797 1_555
In0_3 Y6_2 3.250797 1_556
In0_3 Y4_2 3.365051 1_556
In0_3 Y4_3 3.365051 1_555
In0_3 Y0_6 3.442204 1_556
In0_3 Y0_7 3.442204 1_555
In0_4 Ni1_4 2.979887 1_555
In0_4 In3_4 3.017678 1_555
In0_4 Y1_4 3.156327 1_555
In0_4 Y1_5 3.156327 1_555
In0_4 Y6_5 3.250797 1_555
In0_4 Y6_4 3.250797 1_555
In0_4 Y4_4 3.365051 1_555
In0_4 Y4_5 3.365051 1_555
In0_4 Y0_0 3.442204 1_655
In0_4 Y0_1 3.442204 1_655
In0_4 In0_5 3.651212 1_554
In0_4 In0_5 3.651212 1_555
In0_5 Ni1_5 2.979887 1_555
In0_5 In3_5 3.017678 1_555
In0_5 Y1_4 3.156327 1_556
In0_5 Y1_5 3.156327 1_555
In0_5 Y6_4 3.250797 1_556
In0_5 Y6_5 3.250797 1_555
In0_5 Y4_4 3.365051 1_556
In0_5 Y4_5 3.365051 1_555
In0_5 Y0_0 3.442204 1_656
In0_5 Y0_1 3.442204 1_655
In0_6 Ni1_6 2.979887 1_555
In0_6 In3_6 3.017678 1_555
In0_6 Y1_6 3.156327 1_555
In0_6 Y1_7 3.156327 1_555
In0_6 Y6_7 3.250797 1_555
In0_6 Y6_6 3.250797 1_555
In0_6 Y4_6 3.365051 1_555
In0_6 Y4_7 3.365051 1_555
In0_6 Y0_3 3.442204 1_655
In0_6 Y0_2 3.442204 1_655
In0_6 In0_7 3.651212 1_554
In0_6 In0_7 3.651212 1_555
In0_7 Ni1_7 2.979887 1_555
In0_7 In3_7 3.017678 1_555
In0_7 Y1_7 3.156327 1_555
In0_7 Y1_6 3.156327 1_556
In0_7 Y6_7 3.250797 1_555
In0_7 Y6_6 3.250797 1_556
In0_7 Y4_7 3.365051 1_555
In0_7 Y4_6 3.365051 1_556
In0_7 Y0_3 3.442204 1_655
In0_7 Y0_2 3.442204 1_656
In1_0 Ni0_0 2.979887 1_555
In1_0 In2_0 3.017678 1_555
In1_0 Y0_1 3.156327 1_555
In1_0 Y0_0 3.156327 1_555
In1_0 Y7_1 3.250797 1_555
In1_0 Y7_0 3.250797 1_555
In1_0 Y5_1 3.365051 1_555
In1_0 Y5_0 3.365051 1_555
In1_0 Y1_5 3.442204 1_455
In1_0 Y1_4 3.442204 1_455
In1_0 In1_1 3.651212 1_555
In1_0 In1_1 3.651212 1_554
In1_1 Ni0_1 2.979887 1_555
In1_1 In2_1 3.017678 1_555
In1_1 Y0_0 3.156327 1_556
In1_1 Y0_1 3.156327 1_555
In1_1 Y7_1 3.250797 1_555
In1_1 Y7_0 3.250797 1_556
In1_1 Y5_1 3.365051 1_555
In1_1 Y5_0 3.365051 1_556
In1_1 Y1_5 3.442204 1_455
In1_1 Y1_4 3.442204 1_456
In1_2 Ni0_2 2.979887 1_555
In1_2 In2_2 3.017678 1_555
In1_2 Y0_3 3.156327 1_555
In1_2 Y0_2 3.156327 1_555
In1_2 Y7_3 3.250797 1_555
In1_2 Y7_2 3.250797 1_555
In1_2 Y5_2 3.365051 1_555
In1_2 Y5_3 3.365051 1_555
In1_2 Y1_7 3.442204 1_455
In1_2 Y1_6 3.442204 1_455
In1_2 In1_3 3.651212 1_555
In1_2 In1_3 3.651212 1_554
In1_3 Ni0_3 2.979887 1_555
In1_3 In2_3 3.017678 1_555
In1_3 Y0_3 3.156327 1_555
In1_3 Y0_2 3.156327 1_556
In1_3 Y7_2 3.250797 1_556
In1_3 Y7_3 3.250797 1_555
In1_3 Y5_2 3.365051 1_556
In1_3 Y5_3 3.365051 1_555
In1_3 Y1_6 3.442204 1_456
In1_3 Y1_7 3.442204 1_455
In1_4 Ni0_4 2.979887 1_555
In1_4 In2_4 3.017678 1_555
In1_4 Y0_4 3.156327 1_555
In1_4 Y0_5 3.156327 1_555
In1_4 Y7_4 3.250797 1_555
In1_4 Y7_5 3.250797 1_555
In1_4 Y5_4 3.365051 1_555
In1_4 Y5_5 3.365051 1_555
In1_4 Y1_0 3.442204 1_555
In1_4 Y1_1 3.442204 1_555
In1_4 In1_5 3.651212 1_555
In1_4 In1_5 3.651212 1_554
In1_5 Ni0_5 2.979887 1_555
In1_5 In2_5 3.017678 1_555
In1_5 Y0_4 3.156327 1_556
In1_5 Y0_5 3.156327 1_555
In1_5 Y7_5 3.250797 1_555
In1_5 Y7_4 3.250797 1_556
In1_5 Y5_4 3.365051 1_556
In1_5 Y5_5 3.365051 1_555
In1_5 Y1_0 3.442204 1_556
In1_5 Y1_1 3.442204 1_555
In1_6 Ni0_6 2.979887 1_555
In1_6 In2_6 3.017678 1_555
In1_6 Y0_6 3.156327 1_555
In1_6 Y0_7 3.156327 1_555
In1_6 Y7_6 3.250797 1_555
In1_6 Y7_7 3.250797 1_555
In1_6 Y5_6 3.365051 1_555
In1_6 Y5_7 3.365051 1_555
In1_6 Y1_3 3.442204 1_555
In1_6 Y1_2 3.442204 1_555
In1_6 In1_7 3.651212 1_555
In1_6 In1_7 3.651212 1_554
In1_7 Ni0_7 2.979887 1_555
In1_7 In2_7 3.017678 1_555
In1_7 Y0_6 3.156327 1_556
In1_7 Y0_7 3.156327 1_555
In1_7 Y7_6 3.250797 1_556
In1_7 Y7_7 3.250797 1_555
In1_7 Y5_7 3.365051 1_555
In1_7 Y5_6 3.365051 1_556
In1_7 Y1_2 3.442204 1_556
In1_7 Y1_3 3.442204 1_555
In2_0 Ni3_0 2.979887 1_555
In2_0 Y3_0 3.156327 1_555
In2_0 Y3_1 3.156327 1_555
In2_0 Y7_1 3.250797 1_555
In2_0 Y7_0 3.250797 1_555
In2_0 Y5_0 3.365051 1_555
In2_0 Y5_1 3.365051 1_555
In2_0 Y2_2 3.442204 1_555
In2_0 Y2_3 3.442204 1_555
In2_0 In2_1 3.651212 1_554
In2_0 In2_1 3.651212 1_555
In2_1 Ni3_1 2.979887 1_555
In2_1 Y3_1 3.156327 1_555
In2_1 Y3_0 3.156327 1_556
In2_1 Y7_0 3.250797 1_556
In2_1 Y7_1 3.250797 1_555
In2_1 Y5_0 3.365051 1_556
In2_1 Y5_1 3.365051 1_555
In2_1 Y2_2 3.442204 1_556
In2_1 Y2_3 3.442204 1_555
In2_2 Ni3_2 2.979887 1_555
In2_2 Y3_3 3.156327 1_555
In2_2 Y3_2 3.156327 1_555
In2_2 Y7_2 3.250797 1_555
In2_2 Y7_3 3.250797 1_555
In2_2 Y5_3 3.365051 1_555
In2_2 Y5_2 3.365051 1_555
In2_2 Y2_1 3.442204 1_565
In2_2 Y2_0 3.442204 1_565
In2_2 In2_3 3.651212 1_555
In2_2 In2_3 3.651212 1_554
In2_3 Ni3_3 2.979887 1_555
In2_3 Y3_2 3.156327 1_556
In2_3 Y3_3 3.156327 1_555
In2_3 Y7_2 3.250797 1_556
In2_3 Y7_3 3.250797 1_555
In2_3 Y5_3 3.365051 1_555
In2_3 Y5_2 3.365051 1_556
In2_3 Y2_0 3.442204 1_566
In2_3 Y2_1 3.442204 1_565
In2_4 Ni3_4 2.979887 1_555
In2_4 Y3_4 3.156327 1_555
In2_4 Y3_5 3.156327 1_555
In2_4 Y7_5 3.250797 1_555
In2_4 Y7_4 3.250797 1_555
In2_4 Y5_4 3.365051 1_555
In2_4 Y5_5 3.365051 1_555
In2_4 Y2_6 3.442204 1_555
In2_4 Y2_7 3.442204 1_555
In2_4 In2_5 3.651212 1_555
In2_4 In2_5 3.651212 1_554
In2_5 Ni3_5 2.979887 1_555
In2_5 Y3_4 3.156327 1_556
In2_5 Y3_5 3.156327 1_555
In2_5 Y7_5 3.250797 1_555
In2_5 Y7_4 3.250797 1_556
In2_5 Y5_4 3.365051 1_556
In2_5 Y5_5 3.365051 1_555
In2_5 Y2_6 3.442204 1_556
In2_5 Y2_7 3.442204 1_555
In2_6 Ni3_6 2.979887 1_555
In2_6 Y3_6 3.156327 1_555
In2_6 Y3_7 3.156327 1_555
In2_6 Y7_7 3.250797 1_555
In2_6 Y7_6 3.250797 1_555
In2_6 Y5_7 3.365051 1_555
In2_6 Y5_6 3.365051 1_555
In2_6 Y2_4 3.442204 1_565
In2_6 Y2_5 3.442204 1_565
In2_6 In2_7 3.651212 1_555
In2_6 In2_7 3.651212 1_554
In2_7 Ni3_7 2.979887 1_555
In2_7 Y3_6 3.156327 1_556
In2_7 Y3_7 3.156327 1_555
In2_7 Y7_7 3.250797 1_555
In2_7 Y7_6 3.250797 1_556
In2_7 Y5_6 3.365051 1_556
In2_7 Y5_7 3.365051 1_555
In2_7 Y2_4 3.442204 1_566
In2_7 Y2_5 3.442204 1_565
In3_0 Ni2_0 2.979887 1_555
In3_0 Y2_0 3.156327 1_555
In3_0 Y2_1 3.156327 1_555
In3_0 Y6_1 3.250797 1_555
In3_0 Y6_0 3.250797 1_555
In3_0 Y4_1 3.365051 1_555
In3_0 Y4_0 3.365051 1_555
In3_0 Y3_2 3.442204 1_545
In3_0 Y3_3 3.442204 1_545
In3_0 In3_1 3.651212 1_555
In3_0 In3_1 3.651212 1_554
In3_1 Ni2_1 2.979887 1_555
In3_1 Y2_1 3.156327 1_555
In3_1 Y2_0 3.156327 1_556
In3_1 Y6_1 3.250797 1_555
In3_1 Y6_0 3.250797 1_556
In3_1 Y4_0 3.365051 1_556
In3_1 Y4_1 3.365051 1_555
In3_1 Y3_2 3.442204 1_546
In3_1 Y3_3 3.442204 1_545
In3_2 Ni2_2 2.979887 1_555
In3_2 Y2_2 3.156327 1_555
In3_2 Y2_3 3.156327 1_555
In3_2 Y6_2 3.250797 1_555
In3_2 Y6_3 3.250797 1_555
In3_2 Y4_2 3.365051 1_555
In3_2 Y4_3 3.365051 1_555
In3_2 Y3_0 3.442204 1_555
In3_2 Y3_1 3.442204 1_555
In3_2 In3_3 3.651212 1_555
In3_2 In3_3 3.651212 1_554
In3_3 Ni2_3 2.979887 1_555
In3_3 Y2_3 3.156327 1_555
In3_3 Y2_2 3.156327 1_556
In3_3 Y6_3 3.250797 1_555
In3_3 Y6_2 3.250797 1_556
In3_3 Y4_3 3.365051 1_555
In3_3 Y4_2 3.365051 1_556
In3_3 Y3_1 3.442204 1_555
In3_3 Y3_0 3.442204 1_556
In3_4 Ni2_4 2.979887 1_555
In3_4 Y2_4 3.156327 1_555
In3_4 Y2_5 3.156327 1_555
In3_4 Y6_5 3.250797 1_555
In3_4 Y6_4 3.250797 1_555
In3_4 Y4_4 3.365051 1_555
In3_4 Y4_5 3.365051 1_555
In3_4 Y3_6 3.442204 1_545
In3_4 Y3_7 3.442204 1_545
In3_4 In3_5 3.651212 1_554
In3_4 In3_5 3.651212 1_555
In3_5 Ni2_5 2.979887 1_555
In3_5 Y2_5 3.156327 1_555
In3_5 Y2_4 3.156327 1_556
In3_5 Y6_4 3.250797 1_556
In3_5 Y6_5 3.250797 1_555
In3_5 Y4_5 3.365051 1_555
In3_5 Y4_4 3.365051 1_556
In3_5 Y3_6 3.442204 1_546
In3_5 Y3_7 3.442204 1_545
In3_6 Ni2_6 2.979887 1_555
In3_6 Y2_6 3.156327 1_555
In3_6 Y2_7 3.156327 1_555
In3_6 Y6_6 3.250797 1_555
In3_6 Y6_7 3.250797 1_555
In3_6 Y4_7 3.365051 1_555
In3_6 Y4_6 3.365051 1_555
In3_6 Y3_4 3.442204 1_555
In3_6 Y3_5 3.442204 1_555
In3_6 In3_7 3.651212 1_555
In3_6 In3_7 3.651212 1_554
In3_7 Ni2_7 2.979887 1_555
In3_7 Y2_7 3.156327 1_555
In3_7 Y2_6 3.156327 1_556
In3_7 Y6_6 3.250797 1_556
In3_7 Y6_7 3.250797 1_555
In3_7 Y4_6 3.365051 1_556
In3_7 Y4_7 3.365051 1_555
In3_7 Y3_4 3.442204 1_556
In3_7 Y3_5 3.442204 1_555
In4_0 Ni0_0 2.938355 1_555
In4_0 In6_0 3.068874 1_555
In4_0 Y0_1 3.130201 1_555
In4_0 Y0_0 3.130201 1_555
In4_0 Y8_0 3.201028 1_555
In4_0 Y8_1 3.201028 1_555
In4_0 Y9_0 3.349455 1_555
In4_0 Y9_1 3.349455 1_555
In4_0 Y6_4 3.422929 1_455
In4_0 Y6_5 3.422929 1_455
In4_0 In4_1 3.651212 1_554
In4_0 In4_1 3.651212 1_555
In4_1 Ni0_1 2.938355 1_555
In4_1 In6_1 3.068874 1_555
In4_1 Y0_1 3.130201 1_555
In4_1 Y0_0 3.130201 1_556
In4_1 Y8_0 3.201028 1_556
In4_1 Y8_1 3.201028 1_555
In4_1 Y9_1 3.349455 1_555
In4_1 Y9_0 3.349455 1_556
In4_1 Y6_4 3.422929 1_456
In4_1 Y6_5 3.422929 1_455
In4_2 Ni0_2 2.938355 1_555
In4_2 In6_2 3.068874 1_555
In4_2 Y0_2 3.130201 1_555
In4_2 Y0_3 3.130201 1_555
In4_2 Y8_3 3.201028 1_555
In4_2 Y8_2 3.201028 1_555
In4_2 Y9_3 3.349455 1_555
In4_2 Y9_2 3.349455 1_555
In4_2 Y6_6 3.422929 1_455
In4_2 Y6_7 3.422929 1_455
In4_2 In4_3 3.651212 1_554
In4_2 In4_3 3.651212 1_555
In4_3 Ni0_3 2.938355 1_555
In4_3 In6_3 3.068874 1_555
In4_3 Y0_2 3.130201 1_556
In4_3 Y0_3 3.130201 1_555
In4_3 Y8_2 3.201028 1_556
In4_3 Y8_3 3.201028 1_555
In4_3 Y9_3 3.349455 1_555
In4_3 Y9_2 3.349455 1_556
In4_3 Y6_7 3.422929 1_455
In4_3 Y6_6 3.422929 1_456
In4_4 Ni0_4 2.938355 1_555
In4_4 In6_4 3.068874 1_555
In4_4 Y0_4 3.130201 1_555
In4_4 Y0_5 3.130201 1_555
In4_4 Y8_5 3.201028 1_555
In4_4 Y8_4 3.201028 1_555
In4_4 Y9_4 3.349455 1_555
In4_4 Y9_5 3.349455 1_555
In4_4 Y6_0 3.422929 1_555
In4_4 Y6_1 3.422929 1_555
In4_4 In4_5 3.651212 1_554
In4_4 In4_5 3.651212 1_555
In4_5 Ni0_5 2.938355 1_555
In4_5 In6_5 3.068874 1_555
In4_5 Y0_4 3.130201 1_556
In4_5 Y0_5 3.130201 1_555
In4_5 Y8_5 3.201028 1_555
In4_5 Y8_4 3.201028 1_556
In4_5 Y9_4 3.349455 1_556
In4_5 Y9_5 3.349455 1_555
In4_5 Y6_1 3.422929 1_555
In4_5 Y6_0 3.422929 1_556
In4_6 Ni0_6 2.938355 1_555
In4_6 In6_6 3.068874 1_555
In4_6 Y0_6 3.130201 1_555
In4_6 Y0_7 3.130201 1_555
In4_6 Y8_7 3.201028 1_555
In4_6 Y8_6 3.201028 1_555
In4_6 Y9_7 3.349455 1_555
In4_6 Y9_6 3.349455 1_555
In4_6 Y6_2 3.422929 1_555
In4_6 Y6_3 3.422929 1_555
In4_6 In4_7 3.651212 1_554
In4_6 In4_7 3.651212 1_555
In4_7 Ni0_7 2.938355 1_555
In4_7 In6_7 3.068874 1_555
In4_7 Y0_6 3.130201 1_556
In4_7 Y0_7 3.130201 1_555
In4_7 Y8_6 3.201028 1_556
In4_7 Y8_7 3.201028 1_555
In4_7 Y9_7 3.349455 1_555
In4_7 Y9_6 3.349455 1_556
In4_7 Y6_3 3.422929 1_555
In4_7 Y6_2 3.422929 1_556
In5_0 Ni1_0 2.938355 1_555
In5_0 In7_0 3.068874 1_555
In5_0 Y1_0 3.130201 1_555
In5_0 Y1_1 3.130201 1_555
In5_0 Y8_7 3.201028 1_555
In5_0 Y8_6 3.201028 1_555
In5_0 Y10_1 3.349455 1_555
In5_0 Y10_0 3.349455 1_555
In5_0 Y7_4 3.422929 1_555
In5_0 Y7_5 3.422929 1_555
In5_0 In5_1 3.651212 1_554
In5_0 In5_1 3.651212 1_555
In5_1 Ni1_1 2.938355 1_555
In5_1 In7_1 3.068874 1_555
In5_1 Y1_0 3.130201 1_556
In5_1 Y1_1 3.130201 1_555
In5_1 Y8_7 3.201028 1_555
In5_1 Y8_6 3.201028 1_556
In5_1 Y10_0 3.349455 1_556
In5_1 Y10_1 3.349455 1_555
In5_1 Y7_4 3.422929 1_556
In5_1 Y7_5 3.422929 1_555
In5_2 Ni1_2 2.938355 1_555
In5_2 In7_2 3.068874 1_555
In5_2 Y1_2 3.130201 1_555
In5_2 Y1_3 3.130201 1_555
In5_2 Y8_5 3.201028 1_565
In5_2 Y8_4 3.201028 1_565
In5_2 Y10_2 3.349455 1_555
In5_2 Y10_3 3.349455 1_555
In5_2 Y7_7 3.422929 1_555
In5_2 Y7_6 3.422929 1_555
In5_2 In5_3 3.651212 1_555
In5_2 In5_3 3.651212 1_554
In5_3 Ni1_3 2.938355 1_555
In5_3 In7_3 3.068874 1_555
In5_3 Y1_2 3.130201 1_556
In5_3 Y1_3 3.130201 1_555
In5_3 Y8_4 3.201028 1_566
In5_3 Y8_5 3.201028 1_565
In5_3 Y10_2 3.349455 1_556
In5_3 Y10_3 3.349455 1_555
In5_3 Y7_7 3.422929 1_555
In5_3 Y7_6 3.422929 1_556
In5_4 Ni1_4 2.938355 1_555
In5_4 In7_4 3.068874 1_555
In5_4 Y1_5 3.130201 1_555
In5_4 Y1_4 3.130201 1_555
In5_4 Y8_2 3.201028 1_655
In5_4 Y8_3 3.201028 1_655
In5_4 Y10_5 3.349455 1_555
In5_4 Y10_4 3.349455 1_555
In5_4 Y7_0 3.422929 1_655
In5_4 Y7_1 3.422929 1_655
In5_4 In5_5 3.651212 1_554
In5_4 In5_5 3.651212 1_555
In5_5 Ni1_5 2.938355 1_555
In5_5 In7_5 3.068874 1_555
In5_5 Y1_5 3.130201 1_555
In5_5 Y1_4 3.130201 1_556
In5_5 Y8_2 3.201028 1_656
In5_5 Y8_3 3.201028 1_655
In5_5 Y10_4 3.349455 1_556
In5_5 Y10_5 3.349455 1_555
In5_5 Y7_0 3.422929 1_656
In5_5 Y7_1 3.422929 1_655
In5_6 Ni1_6 2.938355 1_555
In5_6 In7_6 3.068874 1_555
In5_6 Y1_6 3.130201 1_555
In5_6 Y1_7 3.130201 1_555
In5_6 Y8_1 3.201028 1_665
In5_6 Y8_0 3.201028 1_665
In5_6 Y10_6 3.349455 1_555
In5_6 Y10_7 3.349455 1_555
In5_6 Y7_3 3.422929 1_655
In5_6 Y7_2 3.422929 1_655
In5_6 In5_7 3.651212 1_555
In5_6 In5_7 3.651212 1_554
In5_7 Ni1_7 2.938355 1_555
In5_7 In7_7 3.068874 1_555
In5_7 Y1_7 3.130201 1_555
In5_7 Y1_6 3.130201 1_556
In5_7 Y8_1 3.201028 1_665
In5_7 Y8_0 3.201028 1_666
In5_7 Y10_6 3.349455 1_556
In5_7 Y10_7 3.349455 1_555
In5_7 Y7_3 3.422929 1_655
In5_7 Y7_2 3.422929 1_656
In6_0 Ni2_0 2.938355 1_555
In6_0 Y2_0 3.130201 1_555
In6_0 Y2_1 3.130201 1_555
In6_0 Y8_0 3.201028 1_555
In6_0 Y8_1 3.201028 1_555
In6_0 Y9_0 3.349455 1_555
In6_0 Y9_1 3.349455 1_555
In6_0 Y7_2 3.422929 1_545
In6_0 Y7_3 3.422929 1_545
In6_0 In6_1 3.651212 1_555
In6_0 In6_1 3.651212 1_554
In6_1 Ni2_1 2.938355 1_555
In6_1 Y2_0 3.130201 1_556
In6_1 Y2_1 3.130201 1_555
In6_1 Y8_1 3.201028 1_555
In6_1 Y8_0 3.201028 1_556
In6_1 Y9_0 3.349455 1_556
In6_1 Y9_1 3.349455 1_555
In6_1 Y7_2 3.422929 1_546
In6_1 Y7_3 3.422929 1_545
In6_2 Ni2_2 2.938355 1_555
In6_2 Y2_2 3.130201 1_555
In6_2 Y2_3 3.130201 1_555
In6_2 Y8_3 3.201028 1_555
In6_2 Y8_2 3.201028 1_555
In6_2 Y9_3 3.349455 1_555
In6_2 Y9_2 3.349455 1_555
In6_2 Y7_0 3.422929 1_555
In6_2 Y7_1 3.422929 1_555
In6_2 In6_3 3.651212 1_555
In6_2 In6_3 3.651212 1_554
In6_3 Ni2_3 2.938355 1_555
In6_3 Y2_2 3.130201 1_556
In6_3 Y2_3 3.130201 1_555
In6_3 Y8_3 3.201028 1_555
In6_3 Y8_2 3.201028 1_556
In6_3 Y9_3 3.349455 1_555
In6_3 Y9_2 3.349455 1_556
In6_3 Y7_0 3.422929 1_556
In6_3 Y7_1 3.422929 1_555
In6_4 Ni2_4 2.938355 1_555
In6_4 Y2_4 3.130201 1_555
In6_4 Y2_5 3.130201 1_555
In6_4 Y8_4 3.201028 1_555
In6_4 Y8_5 3.201028 1_555
In6_4 Y9_5 3.349455 1_555
In6_4 Y9_4 3.349455 1_555
In6_4 Y7_7 3.422929 1_545
In6_4 Y7_6 3.422929 1_545
In6_4 In6_5 3.651212 1_555
In6_4 In6_5 3.651212 1_554
In6_5 Ni2_5 2.938355 1_555
In6_5 Y2_5 3.130201 1_555
In6_5 Y2_4 3.130201 1_556
In6_5 Y8_4 3.201028 1_556
In6_5 Y8_5 3.201028 1_555
In6_5 Y9_5 3.349455 1_555
In6_5 Y9_4 3.349455 1_556
In6_5 Y7_7 3.422929 1_545
In6_5 Y7_6 3.422929 1_546
In6_6 Ni2_6 2.938355 1_555
In6_6 Y2_7 3.130201 1_555
In6_6 Y2_6 3.130201 1_555
In6_6 Y8_6 3.201028 1_555
In6_6 Y8_7 3.201028 1_555
In6_6 Y9_7 3.349455 1_555
In6_6 Y9_6 3.349455 1_555
In6_6 Y7_4 3.422929 1_555
In6_6 Y7_5 3.422929 1_555
In6_6 In6_7 3.651212 1_554
In6_6 In6_7 3.651212 1_555
In6_7 Ni2_7 2.938355 1_555
In6_7 Y2_7 3.130201 1_555
In6_7 Y2_6 3.130201 1_556
In6_7 Y8_6 3.201028 1_556
In6_7 Y8_7 3.201028 1_555
In6_7 Y9_7 3.349455 1_555
In6_7 Y9_6 3.349455 1_556
In6_7 Y7_5 3.422929 1_555
In6_7 Y7_4 3.422929 1_556
In7_0 Ni3_0 2.938355 1_555
In7_0 Y3_0 3.130201 1_555
In7_0 Y3_1 3.130201 1_555
In7_0 Y8_7 3.201028 1_555
In7_0 Y8_6 3.201028 1_555
In7_0 Y10_1 3.349455 1_555
In7_0 Y10_0 3.349455 1_555
In7_0 Y6_2 3.422929 1_555
In7_0 Y6_3 3.422929 1_555
In7_0 In7_1 3.651212 1_555
In7_0 In7_1 3.651212 1_554
In7_1 Ni3_1 2.938355 1_555
In7_1 Y3_0 3.130201 1_556
In7_1 Y3_1 3.130201 1_555
In7_1 Y8_7 3.201028 1_555
In7_1 Y8_6 3.201028 1_556
In7_1 Y10_0 3.349455 1_556
In7_1 Y10_1 3.349455 1_555
In7_1 Y6_3 3.422929 1_555
In7_1 Y6_2 3.422929 1_556
In7_2 Ni3_2 2.938355 1_555
In7_2 Y3_3 3.130201 1_555
In7_2 Y3_2 3.130201 1_555
In7_2 Y8_4 3.201028 1_565
In7_2 Y8_5 3.201028 1_565
In7_2 Y10_2 3.349455 1_555
In7_2 Y10_3 3.349455 1_555
In7_2 Y6_1 3.422929 1_565
In7_2 Y6_0 3.422929 1_565
In7_2 In7_3 3.651212 1_554
In7_2 In7_3 3.651212 1_555
In7_3 Ni3_3 2.938355 1_555
In7_3 Y3_2 3.130201 1_556
In7_3 Y3_3 3.130201 1_555
In7_3 Y8_4 3.201028 1_566
In7_3 Y8_5 3.201028 1_565
In7_3 Y10_2 3.349455 1_556
In7_3 Y10_3 3.349455 1_555
In7_3 Y6_1 3.422929 1_565
In7_3 Y6_0 3.422929 1_566
In7_4 Ni3_4 2.938355 1_555
In7_4 Y3_5 3.130201 1_555
In7_4 Y3_4 3.130201 1_555
In7_4 Y8_2 3.201028 1_655
In7_4 Y8_3 3.201028 1_655
In7_4 Y10_4 3.349455 1_555
In7_4 Y10_5 3.349455 1_555
In7_4 Y6_7 3.422929 1_555
In7_4 Y6_6 3.422929 1_555
In7_4 In7_5 3.651212 1_554
In7_4 In7_5 3.651212 1_555
In7_5 Ni3_5 2.938355 1_555
In7_5 Y3_5 3.130201 1_555
In7_5 Y3_4 3.130201 1_556
In7_5 Y8_2 3.201028 1_656
In7_5 Y8_3 3.201028 1_655
In7_5 Y10_4 3.349455 1_556
In7_5 Y10_5 3.349455 1_555
In7_5 Y6_6 3.422929 1_556
In7_5 Y6_7 3.422929 1_555
In7_6 Ni3_6 2.938355 1_555
In7_6 Y3_7 3.130201 1_555
In7_6 Y3_6 3.130201 1_555
In7_6 Y8_0 3.201028 1_665
In7_6 Y8_1 3.201028 1_665
In7_6 Y10_6 3.349455 1_555
In7_6 Y10_7 3.349455 1_555
In7_6 Y6_5 3.422929 1_565
In7_6 Y6_4 3.422929 1_565
In7_6 In7_7 3.651212 1_554
In7_6 In7_7 3.651212 1_555
In7_7 Ni3_7 2.938355 1_555
In7_7 Y3_6 3.130201 1_556
In7_7 Y3_7 3.130201 1_555
In7_7 Y8_0 3.201028 1_666
In7_7 Y8_1 3.201028 1_665
In7_7 Y10_7 3.349455 1_555
In7_7 Y10_6 3.349455 1_556
In7_7 Y6_5 3.422929 1_565
In7_7 Y6_4 3.422929 1_566
In8_0 Ni1_0 3.103648 1_555
In8_0 Ni2_0 3.103648 1_555
In8_0 Ni0_0 3.103648 1_555
In8_0 Ni3_0 3.103648 1_555
In8_0 Y4_1 3.261299 1_555
In8_0 Y4_0 3.261299 1_555
In8_0 Y5_0 3.261299 1_555
In8_0 Y5_1 3.261299 1_555
In8_0 Y9_0 3.265532 1_555
In8_0 Y9_1 3.265532 1_555
In8_0 Y10_1 3.265532 1_555
In8_0 Y10_0 3.265532 1_555
In8_0 In8_1 3.651212 1_554
In8_0 In8_1 3.651212 1_555
In8_1 Ni1_1 3.103648 1_555
In8_1 Ni2_1 3.103648 1_555
In8_1 Ni0_1 3.103648 1_555
In8_1 Ni3_1 3.103648 1_555
In8_1 Y4_0 3.261299 1_556
In8_1 Y4_1 3.261299 1_555
In8_1 Y5_0 3.261299 1_556
In8_1 Y5_1 3.261299 1_555
In8_1 Y9_0 3.265532 1_556
In8_1 Y9_1 3.265532 1_555
In8_1 Y10_1 3.265532 1_555
In8_1 Y10_0 3.265532 1_556
In8_2 Ni2_2 3.103648 1_555
In8_2 Ni1_2 3.103648 1_555
In8_2 Ni0_2 3.103648 1_555
In8_2 Ni3_2 3.103648 1_555
In8_2 Y5_3 3.261299 1_555
In8_2 Y4_2 3.261299 1_555
In8_2 Y5_2 3.261299 1_555
In8_2 Y4_3 3.261299 1_555
In8_2 Y9_2 3.265532 1_555
In8_2 Y9_3 3.265532 1_555
In8_2 Y10_2 3.265532 1_555
In8_2 Y10_3 3.265532 1_555
In8_2 In8_3 3.651212 1_555
In8_2 In8_3 3.651212 1_554
In8_3 Ni2_3 3.103648 1_555
In8_3 Ni1_3 3.103648 1_555
In8_3 Ni0_3 3.103648 1_555
In8_3 Ni3_3 3.103648 1_555
In8_3 Y4_2 3.261299 1_556
In8_3 Y5_3 3.261299 1_555
In8_3 Y5_2 3.261299 1_556
In8_3 Y4_3 3.261299 1_555
In8_3 Y9_2 3.265532 1_556
In8_3 Y9_3 3.265532 1_555
In8_3 Y10_2 3.265532 1_556
In8_3 Y10_3 3.265532 1_555
In8_4 Ni1_4 3.103648 1_555
In8_4 Ni2_4 3.103648 1_555
In8_4 Ni0_4 3.103648 1_555
In8_4 Ni3_4 3.103648 1_555
In8_4 Y4_4 3.261299 1_555
In8_4 Y4_5 3.261299 1_555
In8_4 Y5_5 3.261299 1_555
In8_4 Y5_4 3.261299 1_555
In8_4 Y9_5 3.265532 1_555
In8_4 Y9_4 3.265532 1_555
In8_4 Y10_4 3.265532 1_555
In8_4 Y10_5 3.265532 1_555
In8_4 In8_5 3.651212 1_555
In8_4 In8_5 3.651212 1_554
In8_5 Ni1_5 3.103648 1_555
In8_5 Ni2_5 3.103648 1_555
In8_5 Ni0_5 3.103648 1_555
In8_5 Ni3_5 3.103648 1_555
In8_5 Y4_5 3.261299 1_555
In8_5 Y4_4 3.261299 1_556
In8_5 Y5_5 3.261299 1_555
In8_5 Y5_4 3.261299 1_556
In8_5 Y9_4 3.265532 1_556
In8_5 Y9_5 3.265532 1_555
In8_5 Y10_5 3.265532 1_555
In8_5 Y10_4 3.265532 1_556
In8_6 Ni1_6 3.103648 1_555
In8_6 Ni2_6 3.103648 1_555
In8_6 Ni0_6 3.103648 1_555
In8_6 Ni3_6 3.103648 1_555
In8_6 Y4_7 3.261299 1_555
In8_6 Y5_7 3.261299 1_555
In8_6 Y5_6 3.261299 1_555
In8_6 Y4_6 3.261299 1_555
In8_6 Y10_6 3.265532 1_555
In8_6 Y9_7 3.265532 1_555
In8_6 Y10_7 3.265532 1_555
In8_6 Y9_6 3.265532 1_555
In8_6 In8_7 3.651212 1_554
In8_6 In8_7 3.651212 1_555
In8_7 Ni1_7 3.103648 1_555
In8_7 Ni2_7 3.103648 1_555
In8_7 Ni0_7 3.103648 1_555
In8_7 Ni3_7 3.103648 1_555
In8_7 Y4_7 3.261299 1_555
In8_7 Y5_7 3.261299 1_555
In8_7 Y4_6 3.261299 1_556
In8_7 Y5_6 3.261299 1_556
In8_7 Y9_7 3.265532 1_555
In8_7 Y10_7 3.265532 1_555
In8_7 Y10_6 3.265532 1_556
In8_7 Y9_6 3.265532 1_556
Ni0_0 Y0_1 2.738401 1_555
Ni0_0 Y0_0 2.738401 1_555
Ni0_0 Y9_1 2.899153 1_555
Ni0_0 Y9_0 2.899153 1_555
Ni0_0 Y5_1 2.900727 1_555
Ni0_0 Y5_0 2.900727 1_555
Ni0_1 Y0_1 2.738401 1_555
Ni0_1 Y0_0 2.738401 1_556
Ni0_1 Y9_0 2.899153 1_556
Ni0_1 Y9_1 2.899153 1_555
Ni0_1 Y5_1 2.900727 1_555
Ni0_1 Y5_0 2.900727 1_556
Ni0_2 Y0_2 2.738401 1_555
Ni0_2 Y0_3 2.738401 1_555
Ni0_2 Y9_3 2.899153 1_555
Ni0_2 Y9_2 2.899153 1_555
Ni0_2 Y5_2 2.900727 1_555
Ni0_2 Y5_3 2.900727 1_555
Ni0_3 Y0_3 2.738401 1_555
Ni0_3 Y0_2 2.738401 1_556
Ni0_3 Y9_3 2.899153 1_555
Ni0_3 Y9_2 2.899153 1_556
Ni0_3 Y5_2 2.900727 1_556
Ni0_3 Y5_3 2.900727 1_555
Ni0_4 Y0_5 2.738401 1_555
Ni0_4 Y0_4 2.738401 1_555
Ni0_4 Y9_4 2.899153 1_555
Ni0_4 Y9_5 2.899153 1_555
Ni0_4 Y5_5 2.900727 1_555
Ni0_4 Y5_4 2.900727 1_555
Ni0_5 Y0_5 2.738401 1_555
Ni0_5 Y0_4 2.738401 1_556
Ni0_5 Y9_4 2.899153 1_556
Ni0_5 Y9_5 2.899153 1_555
Ni0_5 Y5_4 2.900727 1_556
Ni0_5 Y5_5 2.900727 1_555
Ni0_6 Y0_6 2.738401 1_555
Ni0_6 Y0_7 2.738401 1_555
Ni0_6 Y9_6 2.899153 1_555
Ni0_6 Y9_7 2.899153 1_555
Ni0_6 Y5_6 2.900727 1_555
Ni0_6 Y5_7 2.900727 1_555
Ni0_7 Y0_6 2.738401 1_556
Ni0_7 Y0_7 2.738401 1_555
Ni0_7 Y9_6 2.899153 1_556
Ni0_7 Y9_7 2.899153 1_555
Ni0_7 Y5_6 2.900727 1_556
Ni0_7 Y5_7 2.900727 1_555
Ni1_0 Y1_0 2.738401 1_555
Ni1_0 Y1_1 2.738401 1_555
Ni1_0 Y10_1 2.899153 1_555
Ni1_0 Y10_0 2.899153 1_555
Ni1_0 Y4_0 2.900727 1_555
Ni1_0 Y4_1 2.900727 1_555
Ni1_1 Y1_1 2.738401 1_555
Ni1_1 Y1_0 2.738401 1_556
Ni1_1 Y10_0 2.899153 1_556
Ni1_1 Y10_1 2.899153 1_555
Ni1_1 Y4_0 2.900727 1_556
Ni1_1 Y4_1 2.900727 1_555
Ni1_2 Y1_3 2.738401 1_555
Ni1_2 Y1_2 2.738401 1_555
Ni1_2 Y10_3 2.899153 1_555
Ni1_2 Y10_2 2.899153 1_555
Ni1_2 Y4_3 2.900727 1_555
Ni1_2 Y4_2 2.900727 1_555
Ni1_3 Y1_3 2.738401 1_555
Ni1_3 Y1_2 2.738401 1_556
Ni1_3 Y10_2 2.899153 1_556
Ni1_3 Y10_3 2.899153 1_555
Ni1_3 Y4_3 2.900727 1_555
Ni1_3 Y4_2 2.900727 1_556
Ni1_4 Y1_4 2.738401 1_555
Ni1_4 Y1_5 2.738401 1_555
Ni1_4 Y10_5 2.899153 1_555
Ni1_4 Y10_4 2.899153 1_555
Ni1_4 Y4_4 2.900727 1_555
Ni1_4 Y4_5 2.900727 1_555
Ni1_5 Y1_5 2.738401 1_555
Ni1_5 Y1_4 2.738401 1_556
Ni1_5 Y10_5 2.899153 1_555
Ni1_5 Y10_4 2.899153 1_556
Ni1_5 Y4_5 2.900727 1_555
Ni1_5 Y4_4 2.900727 1_556
Ni1_6 Y1_7 2.738401 1_555
Ni1_6 Y1_6 2.738401 1_555
Ni1_6 Y10_7 2.899153 1_555
Ni1_6 Y10_6 2.899153 1_555
Ni1_6 Y4_6 2.900727 1_555
Ni1_6 Y4_7 2.900727 1_555
Ni1_7 Y1_7 2.738401 1_555
Ni1_7 Y1_6 2.738401 1_556
Ni1_7 Y10_6 2.899153 1_556
Ni1_7 Y10_7 2.899153 1_555
Ni1_7 Y4_6 2.900727 1_556
Ni1_7 Y4_7 2.900727 1_555
Ni2_0 Y2_0 2.738401 1_555
Ni2_0 Y2_1 2.738401 1_555
Ni2_0 Y9_0 2.899153 1_555
Ni2_0 Y9_1 2.899153 1_555
Ni2_0 Y4_1 2.900727 1_555
Ni2_0 Y4_0 2.900727 1_555
Ni2_1 Y2_0 2.738401 1_556
Ni2_1 Y2_1 2.738401 1_555
Ni2_1 Y9_0 2.899153 1_556
Ni2_1 Y9_1 2.899153 1_555
Ni2_1 Y4_0 2.900727 1_556
Ni2_1 Y4_1 2.900727 1_555
Ni2_2 Y2_2 2.738401 1_555
Ni2_2 Y2_3 2.738401 1_555
Ni2_2 Y9_3 2.899153 1_555
Ni2_2 Y9_2 2.899153 1_555
Ni2_2 Y4_2 2.900727 1_555
Ni2_2 Y4_3 2.900727 1_555
Ni2_3 Y2_3 2.738401 1_555
Ni2_3 Y2_2 2.738401 1_556
Ni2_3 Y9_3 2.899153 1_555
Ni2_3 Y9_2 2.899153 1_556
Ni2_3 Y4_2 2.900727 1_556
Ni2_3 Y4_3 2.900727 1_555
Ni2_4 Y2_5 2.738401 1_555
Ni2_4 Y2_4 2.738401 1_555
Ni2_4 Y9_4 2.899153 1_555
Ni2_4 Y9_5 2.899153 1_555
Ni2_4 Y4_4 2.900727 1_555
Ni2_4 Y4_5 2.900727 1_555
Ni2_5 Y2_5 2.738401 1_555
Ni2_5 Y2_4 2.738401 1_556
Ni2_5 Y9_5 2.899153 1_555
Ni2_5 Y9_4 2.899153 1_556
Ni2_5 Y4_5 2.900727 1_555
Ni2_5 Y4_4 2.900727 1_556
Ni2_6 Y2_6 2.738401 1_555
Ni2_6 Y2_7 2.738401 1_555
Ni2_6 Y9_6 2.899153 1_555
Ni2_6 Y9_7 2.899153 1_555
Ni2_6 Y4_6 2.900727 1_555
Ni2_6 Y4_7 2.900727 1_555
Ni2_7 Y2_6 2.738401 1_556
Ni2_7 Y2_7 2.738401 1_555
Ni2_7 Y9_6 2.899153 1_556
Ni2_7 Y9_7 2.899153 1_555
Ni2_7 Y4_6 2.900727 1_556
Ni2_7 Y4_7 2.900727 1_555
Ni3_0 Y3_1 2.738401 1_555
Ni3_0 Y3_0 2.738401 1_555
Ni3_0 Y10_0 2.899153 1_555
Ni3_0 Y10_1 2.899153 1_555
Ni3_0 Y5_0 2.900727 1_555
Ni3_0 Y5_1 2.900727 1_555
Ni3_1 Y3_1 2.738401 1_555
Ni3_1 Y3_0 2.738401 1_556
Ni3_1 Y10_0 2.899153 1_556
Ni3_1 Y10_1 2.899153 1_555
Ni3_1 Y5_0 2.900727 1_556
Ni3_1 Y5_1 2.900727 1_555
Ni3_2 Y3_3 2.738401 1_555
Ni3_2 Y3_2 2.738401 1_555
Ni3_2 Y10_2 2.899153 1_555
Ni3_2 Y10_3 2.899153 1_555
Ni3_2 Y5_3 2.900727 1_555
Ni3_2 Y5_2 2.900727 1_555
Ni3_3 Y3_3 2.738401 1_555
Ni3_3 Y3_2 2.738401 1_556
Ni3_3 Y10_2 2.899153 1_556
Ni3_3 Y10_3 2.899153 1_555
Ni3_3 Y5_3 2.900727 1_555
Ni3_3 Y5_2 2.900727 1_556
Ni3_4 Y3_5 2.738401 1_555
Ni3_4 Y3_4 2.738401 1_555
Ni3_4 Y10_5 2.899153 1_555
Ni3_4 Y10_4 2.899153 1_555
Ni3_4 Y5_5 2.900727 1_555
Ni3_4 Y5_4 2.900727 1_555
Ni3_5 Y3_4 2.738401 1_556
Ni3_5 Y3_5 2.738401 1_555
Ni3_5 Y10_5 2.899153 1_555
Ni3_5 Y10_4 2.899153 1_556
Ni3_5 Y5_5 2.900727 1_555
Ni3_5 Y5_4 2.900727 1_556
Ni3_6 Y3_7 2.738401 1_555
Ni3_6 Y3_6 2.738401 1_555
Ni3_6 Y10_6 2.899153 1_555
Ni3_6 Y10_7 2.899153 1_555
Ni3_6 Y5_6 2.900727 1_555
Ni3_6 Y5_7 2.900727 1_555
Ni3_7 Y3_6 2.738401 1_556
Ni3_7 Y3_7 2.738401 1_555
Ni3_7 Y10_6 2.899153 1_556
Ni3_7 Y10_7 2.899153 1_555
Ni3_7 Y5_6 2.900727 1_556
Ni3_7 Y5_7 2.900727 1_555
