# generated using pymatgen
data_Nb16Tl16O53
_symmetry_space_group_name_H-M   'P 1'
_cell_length_a   13.20524997
_cell_length_b   13.20524997
_cell_length_c   13.20524997
_cell_angle_alpha   131.82098727
_cell_angle_beta   131.82098727
_cell_angle_gamma   70.51190539
_symmetry_Int_Tables_number   1
_chemical_formula_structural   Nb16Tl16O53
_chemical_formula_sum   'Nb16 Tl16 O53'
_cell_volume   1253.04680888
_cell_formula_units_Z   1
loop_
 _symmetry_equiv_pos_site_id
 _symmetry_equiv_pos_as_xyz
  1  'x, y, z'
loop_
 _atom_site_type_symbol
 _atom_site_label
 _atom_site_symmetry_multiplicity
 _atom_site_fract_x
 _atom_site_fract_y
 _atom_site_fract_z
 _atom_site_occupancy
  Nb  Nb0  1  0.56329500  0.81176500  0.50055100  1
  Nb  Nb1  1  0.31121500  0.06274400  0.49944900  1
  Nb  Nb2  1  0.06274400  0.31121500  0.49944900  1
  Nb  Nb3  1  0.81176500  0.56329500  0.50055100  1
  Nb  Nb4  1  0.93939300  0.93939300  0.25186700  1
  Nb  Nb5  1  0.68752600  0.68752600  0.74813300  1
  Nb  Nb6  1  0.18817500  0.18817500  0.75254300  1
  Nb  Nb7  1  0.43563300  0.43563300  0.24745700  1
  Nb  Nb8  1  0.56436700  0.81182500  0.00000000  1
  Nb  Nb9  1  0.81182500  0.56436700  0.00000000  1
  Nb  Nb10  1  0.31247400  0.06060700  0.00000000  1
  Nb  Nb11  1  0.06060700  0.31247400  0.00000000  1
  Nb  Nb12  1  0.18823500  0.68878500  0.75153000  1
  Nb  Nb13  1  0.68878500  0.18823500  0.75153000  1
  Nb  Nb14  1  0.43670500  0.93725600  0.24847000  1
  Nb  Nb15  1  0.93725600  0.43670500  0.24847000  1
  Tl  Tl0  1  0.56540200  0.31729000  0.00000000  1
  Tl  Tl1  1  0.06253100  0.81322900  0.00000000  1
  Tl  Tl2  1  0.81322900  0.06253100  0.00000000  1
  Tl  Tl3  1  0.31729000  0.56540200  0.00000000  1
  Tl  Tl4  1  0.92910600  0.43261200  0.73934100  1
  Tl  Tl5  1  0.18976600  0.69327100  0.26065900  1
  Tl  Tl6  1  0.69327100  0.18976600  0.26065900  1
  Tl  Tl7  1  0.43261200  0.92910600  0.73934100  1
  Tl  Tl8  1  0.56738800  0.30672900  0.49649400  1
  Tl  Tl9  1  0.07089400  0.81023400  0.50350600  1
  Tl  Tl10  1  0.30672900  0.56738800  0.49649400  1
  Tl  Tl11  1  0.81023400  0.07089400  0.50350600  1
  Tl  Tl12  1  0.43459800  0.43459800  0.75188800  1
  Tl  Tl13  1  0.18677100  0.18677100  0.24930100  1
  Tl  Tl14  1  0.68271000  0.68271000  0.24811200  1
  Tl  Tl15  1  0.93746900  0.93746900  0.75069900  1
  O  O0  1  0.91072100  0.41072100  0.50000000  1
  O  O1  1  0.41072100  0.91072100  0.50000000  1
  O  O2  1  0.62786300  0.81596800  0.69166800  1
  O  O3  1  0.81596800  0.62786300  0.69166800  1
  O  O4  1  0.44442500  0.62763100  0.32032100  1
  O  O5  1  0.64389000  0.12155800  0.00000000  1
  O  O6  1  0.93619400  0.12430000  0.30833200  1
  O  O7  1  0.30731100  0.12410400  0.67967900  1
  O  O8  1  0.62763100  0.44442500  0.32032100  1
  O  O9  1  0.12155800  0.64389000  0.00000000  1
  O  O10  1  0.12430000  0.93619400  0.30833200  1
  O  O11  1  0.12410400  0.30731100  0.67967900  1
  O  O12  1  0.85359100  0.85359100  0.00000000  1
  O  O13  1  0.34341900  0.34341900  0.00000000  1
  O  O14  1  0.53657200  0.53657200  0.50354600  1
  O  O15  1  0.03302600  0.03302600  0.49645400  1
  O  O16  1  0.43046600  0.25025200  0.18205400  1
  O  O17  1  0.75158800  0.56953400  0.81978600  1
  O  O18  1  0.56953400  0.75158800  0.81978600  1
  O  O19  1  0.06819800  0.24841200  0.81794600  1
  O  O20  1  0.74974800  0.93180200  0.18021400  1
  O  O21  1  0.93180200  0.74974800  0.18021400  1
  O  O22  1  0.25025200  0.43046600  0.18205400  1
  O  O23  1  0.24841200  0.06819800  0.81794600  1
  O  O24  1  0.96697400  0.46342800  0.00000000  1
  O  O25  1  0.46342800  0.96697400  0.00000000  1
  O  O26  1  0.14640900  0.14640900  0.00000000  1
  O  O27  1  0.65658100  0.65658100  0.00000000  1
  O  O28  1  0.18403200  0.87570000  0.81189400  1
  O  O29  1  0.69268900  0.37236900  0.81679300  1
  O  O30  1  0.35611000  0.35611000  0.47766800  1
  O  O31  1  0.55557500  0.87589600  0.18320700  1
  O  O32  1  0.87570000  0.18403200  0.81189400  1
  O  O33  1  0.37236900  0.69268900  0.81679300  1
  O  O34  1  0.87844200  0.87844200  0.52233200  1
  O  O35  1  0.87589600  0.55557500  0.18320700  1
  O  O36  1  0.37213700  0.06380600  0.18810600  1
  O  O37  1  0.06380600  0.37213700  0.18810600  1
  O  O38  1  0.08927900  0.58927900  0.50000000  1
  O  O39  1  0.58927900  0.08927900  0.50000000  1
  O  O40  1  0.78116500  0.27846400  0.00000000  1
  O  O41  1  0.27846400  0.78116500  0.00000000  1
  O  O42  1  0.50000000  0.18031500  0.68031500  1
  O  O43  1  0.00000000  0.70721000  0.70721000  1
  O  O44  1  0.70721000  0.00000000  0.70721000  1
  O  O45  1  0.29279000  0.00000000  0.29279000  1
  O  O46  1  0.18031500  0.50000000  0.68031500  1
  O  O47  1  0.50000000  0.81968500  0.31968500  1
  O  O48  1  0.00000000  0.00000000  0.00000000  1
  O  O49  1  0.81968500  0.50000000  0.31968500  1
  O  O50  1  0.00000000  0.29279000  0.29279000  1
  O  O51  1  0.72153600  0.72153600  0.50270100  1
  O  O52  1  0.21883500  0.21883500  0.49729900  1
loop_
_geom_bond_atom_site_label_1
_geom_bond_atom_site_label_2
_geom_bond_distance
_geom_bond_site_symmetry_2
Nb0 O4 1.971671 1_555
Nb0 O1 2.000856 1_555
Nb0 O47 2.006603 1_555
Nb0 O2 2.018521 1_555
Nb0 O51 2.022799 1_555
Nb0 O44 2.103965 1_565
Nb1 O7 1.971671 1_555
Nb1 O1 2.000852 1_545
Nb1 O42 2.006593 1_555
Nb1 O10 2.018535 1_545
Nb1 O52 2.022803 1_555
Nb1 O45 2.103957 1_555
Nb2 O11 1.971671 1_555
Nb2 O0 2.000852 1_455
Nb2 O46 2.006593 1_555
Nb2 O6 2.018535 1_455
Nb2 O52 2.022803 1_555
Nb2 O50 2.103957 1_555
Nb3 O8 1.971671 1_555
Nb3 O0 2.000856 1_555
Nb3 O49 2.006603 1_555
Nb3 O3 2.018521 1_555
Nb3 O51 2.022799 1_555
Nb3 O43 2.103965 1_655
Nb4 O15 1.964147 1_665
Nb4 O21 2.014405 1_555
Nb4 O20 2.014405 1_555
Nb4 O10 2.016188 1_655
Nb4 O6 2.016188 1_565
Nb4 O12 2.105917 1_555
Nb5 O14 1.964147 1_555
Nb5 O17 2.014405 1_555
Nb5 O18 2.014405 1_555
Nb5 O2 2.016189 1_555
Nb5 O3 2.016189 1_555
Nb5 O12 2.105917 1_556
Nb6 O23 1.989095 1_555
Nb6 O19 1.989095 1_555
Nb6 O13 2.004951 1_556
Nb6 O15 2.037673 1_555
Nb6 O11 2.040005 1_555
Nb6 O7 2.040005 1_555
Nb7 O16 1.989110 1_555
Nb7 O22 1.989110 1_555
Nb7 O13 2.004944 1_555
Nb7 O14 2.037680 1_555
Nb7 O8 2.039977 1_555
Nb7 O4 2.039977 1_555
Nb8 O18 1.989104 1_554
Nb8 O20 1.989104 1_555
Nb8 O27 2.004955 1_555
Nb8 O25 2.037669 1_555
Nb8 O33 2.039986 1_554
Nb8 O31 2.039995 1_555
Nb9 O17 1.989104 1_554
Nb9 O21 1.989104 1_555
Nb9 O27 2.004955 1_555
Nb9 O24 2.037669 1_555
Nb9 O29 2.039986 1_554
Nb9 O35 2.039995 1_555
Nb10 O25 1.964147 1_545
Nb10 O16 2.014405 1_555
Nb10 O23 2.014405 1_554
Nb10 O28 2.016188 1_544
Nb10 O36 2.016193 1_555
Nb10 O26 2.105917 1_555
Nb11 O24 1.964147 1_455
Nb11 O22 2.014405 1_555
Nb11 O19 2.014405 1_554
Nb11 O32 2.016188 1_454
Nb11 O37 2.016193 1_555
Nb11 O26 2.105917 1_555
Nb12 O33 1.971677 1_555
Nb12 O38 2.000859 1_555
Nb12 O46 2.006590 1_555
Nb12 O28 2.018539 1_555
Nb12 O41 2.022796 1_556
Nb12 O43 2.103964 1_555
Nb13 O29 1.971677 1_555
Nb13 O39 2.000859 1_555
Nb13 O42 2.006590 1_555
Nb13 O32 2.018539 1_555
Nb13 O40 2.022796 1_556
Nb13 O44 2.103964 1_555
Nb14 O31 1.971662 1_555
Nb14 O39 2.000856 1_565
Nb14 O47 2.006603 1_555
Nb14 O36 2.018525 1_565
Nb14 O41 2.022799 1_555
Nb14 O45 2.103965 1_565
Nb15 O35 1.971662 1_555
Nb15 O38 2.000856 1_655
Nb15 O49 2.006603 1_555
Nb15 O37 2.018525 1_655
Nb15 O40 2.022799 1_555
Nb15 O50 2.103965 1_655
O0 O49 2.735954 1_555
O0 O46 2.735954 1_655
O0 Tl6 2.817209 1_555
O0 Tl4 2.817218 1_555
O1 O42 2.735954 1_565
O1 O47 2.735954 1_555
O1 Tl5 2.817209 1_555
O1 Tl7 2.817218 1_555
O2 Tl2 2.741813 1_566
O2 Tl7 2.759779 1_555
O2 O44 2.791568 1_565
O2 O4 2.830830 1_555
O3 Tl1 2.741813 1_656
O3 Tl4 2.759779 1_555
O3 O43 2.791568 1_655
O3 O8 2.830830 1_555
O4 O51 2.832015 1_555
O4 Tl5 2.848380 1_555
O4 Tl3 2.863647 1_555
O5 Tl2 2.108321 1_555
O5 Tl0 2.442832 1_555
O5 Tl6 2.519582 1_555
O5 Tl7 2.519588 1_544
O6 Tl2 2.741817 1_555
O6 Tl6 2.759768 1_555
O7 Tl7 2.848391 1_545
O7 Tl0 2.863640 1_556
O8 Tl6 2.848380 1_555
O8 Tl0 2.863647 1_555
O9 Tl1 2.108321 1_555
O9 Tl3 2.442832 1_555
O9 Tl5 2.519582 1_555
O9 Tl4 2.519588 1_454
O10 Tl1 2.741817 1_555
O10 Tl5 2.759768 1_555
O10 O45 2.791576 1_565
O10 O12 2.795497 1_455
O10 O15 2.826226 1_565
O10 O7 2.830830 1_565
O11 O6 2.830830 1_455
O11 O52 2.832011 1_555
O11 Tl4 2.848391 1_455
O11 Tl3 2.863640 1_556
O12 Tl2 2.629741 1_565
O12 Tl1 2.629741 1_655
O12 O2 2.795495 1_554
O12 O3 2.795495 1_554
O12 O6 2.795497 1_565
O13 Tl0 2.834954 1_555
O13 Tl3 2.834954 1_555
O14 O2 2.826229 1_555
O14 O3 2.826229 1_555
O14 Tl10 2.869813 1_555
O14 Tl8 2.869813 1_555
O15 O6 2.826226 1_455
O15 Tl11 2.869826 1_455
O15 Tl9 2.869826 1_545
O16 O22 2.747350 1_555
O16 O23 2.775401 1_554
O16 Tl8 2.797186 1_555
O16 Tl6 2.865533 1_555
O17 O21 2.747350 1_556
O17 O18 2.775401 1_555
O17 Tl4 2.797186 1_555
O17 Tl8 2.865535 1_555
O18 O20 2.747350 1_556
O18 Tl7 2.797186 1_555
O18 Tl10 2.865535 1_555
O19 O23 2.747350 1_555
O19 O22 2.775401 1_556
O19 Tl11 2.797193 1_455
O19 Tl4 2.865535 1_455
O20 O21 2.775401 1_555
O20 Tl6 2.797198 1_565
O20 Tl11 2.865541 1_565
O21 Tl5 2.797198 1_655
O21 Tl9 2.865541 1_655
O22 Tl10 2.797186 1_555
O22 Tl5 2.865533 1_555
O23 Tl9 2.797193 1_545
O23 Tl7 2.865535 1_545
O24 O32 2.826226 1_554
O24 O37 2.826237 1_655
O24 Tl4 2.869813 1_554
O24 Tl5 2.869820 1_655
O25 O28 2.826226 1_554
O25 O36 2.826237 1_565
O25 Tl7 2.869813 1_554
O25 Tl6 2.869820 1_565
O26 Tl13 2.629728 1_555
O26 Tl15 2.629743 1_444
O26 O36 2.795492 1_555
O26 O37 2.795492 1_555
O26 O28 2.795497 1_544
O26 O32 2.795497 1_454
O27 Tl14 2.834954 1_555
O27 Tl12 2.834954 1_554
O28 Tl15 2.741821 1_455
O28 Tl9 2.759760 1_555
O28 O43 2.791576 1_555
O28 O33 2.830838 1_555
O29 O32 2.830838 1_555
O29 O40 2.832023 1_556
O29 Tl8 2.848384 1_555
O29 Tl12 2.863639 1_555
O30 Tl13 2.108322 1_555
O30 Tl12 2.442832 1_555
O30 Tl8 2.519588 1_555
O30 Tl10 2.519588 1_555
O31 O36 2.830838 1_565
O31 O41 2.832011 1_555
O31 Tl11 2.848384 1_565
O31 Tl14 2.863640 1_555
O32 Tl15 2.741821 1_545
O32 Tl11 2.759760 1_555
O32 O44 2.791576 1_555
O33 O41 2.832023 1_556
O33 Tl10 2.848384 1_555
O33 Tl12 2.863639 1_555
O34 Tl15 2.108334 1_555
O34 Tl14 2.442832 1_555
O34 Tl9 2.519588 1_655
O34 Tl11 2.519588 1_565
O35 O37 2.830838 1_655
O35 O40 2.832011 1_555
O35 Tl9 2.848384 1_655
O35 Tl14 2.863640 1_555
O36 Tl13 2.741799 1_555
O36 Tl8 2.759771 1_555
O36 O45 2.791565 1_555
O37 Tl13 2.741799 1_555
O37 Tl10 2.759771 1_555
O37 O50 2.791565 1_555
O38 O49 2.735954 1_455
O38 O46 2.735954 1_555
O38 Tl9 2.817204 1_555
O38 Tl10 2.817218 1_555
O39 O42 2.735954 1_555
O39 O47 2.735954 1_545
O39 Tl11 2.817204 1_555
O39 Tl8 2.817218 1_555
O40 Tl0 2.721425 1_555
O40 Tl2 2.739430 1_555
O40 O44 2.797202 1_554
O40 O50 2.797202 1_655
O41 Tl3 2.721425 1_555
O41 Tl1 2.739430 1_555
O41 O45 2.797202 1_565
O41 O43 2.797202 1_554
O42 Tl12 2.799228 1_555
O42 Tl0 2.799228 1_556
O43 Tl15 2.624025 1_455
O43 Tl1 2.624030 1_556
O43 O51 2.797202 1_455
O44 Tl15 2.624025 1_545
O44 Tl2 2.624030 1_556
O44 O51 2.797202 1_545
O45 Tl1 2.624030 1_545
O45 Tl13 2.624036 1_555
O45 O52 2.797202 1_555
O46 Tl3 2.799228 1_556
O46 Tl12 2.799228 1_555
O47 Tl3 2.799228 1_555
O47 Tl14 2.799228 1_555
O48 Tl15 2.325052 1_444
O48 Tl13 2.325064 1_555
O48 Tl2 2.325064 1_455
O48 Tl1 2.325064 1_545
O49 Tl14 2.799228 1_555
O49 Tl0 2.799228 1_555
O50 Tl2 2.624030 1_455
O50 Tl13 2.624036 1_555
O50 O6 2.791576 1_455
O50 O52 2.797202 1_555
O51 Tl14 2.721425 1_555
O51 Tl15 2.739428 1_555
O51 O8 2.832015 1_555
O52 Tl12 2.721425 1_555
O52 Tl13 2.739443 1_555
O52 O7 2.832011 1_555
