# generated using pymatgen
data_NaAcTl2
_symmetry_space_group_name_H-M   'P 1'
_cell_length_a   5.61458716
_cell_length_b   5.61458716
_cell_length_c   5.61458862
_cell_angle_alpha   59.99993972
_cell_angle_beta   59.99993972
_cell_angle_gamma   59.99996559
_symmetry_Int_Tables_number   1
_chemical_formula_structural   NaAcTl2
_chemical_formula_sum   'Na1 Ac1 Tl2'
_cell_volume   125.15208561
_cell_formula_units_Z   1
loop_
 _symmetry_equiv_pos_site_id
 _symmetry_equiv_pos_as_xyz
  1  'x, y, z'
loop_
 _atom_site_type_symbol
 _atom_site_label
 _atom_site_symmetry_multiplicity
 _atom_site_fract_x
 _atom_site_fract_y
 _atom_site_fract_z
 _atom_site_occupancy
  Na  Na0  1  0.75000100  0.75000100  0.75000100  1
  Ac  Ac0  1  0.25000000  0.25000000  0.25000000  1
  Tl  Tl0  1  0.00000000  -0.00000000  -0.00000000  1
  Tl  Tl1  1  0.50000100  0.50000100  0.50000100  1
loop_
_geom_bond_atom_site_label_1
_geom_bond_atom_site_label_2
_geom_bond_distance
_geom_bond_site_symmetry_2
Na0 Tl0 3.438206 1_666
Na0 Tl1 3.438216 1_655
Na0 Tl1 3.438216 1_565
Na0 Tl1 3.438216 1_556
Na0 Tl1 3.438220 1_555
Na0 Tl0 3.438221 1_566
Na0 Tl0 3.438221 1_656
Na0 Tl0 3.438221 1_665
Ac0 Tl1 3.438212 1_554
Ac0 Tl1 3.438212 1_545
Ac0 Tl1 3.438212 1_455
Ac0 Tl0 3.438216 1_565
Ac0 Tl0 3.438216 1_655
Ac0 Tl0 3.438216 1_556
Ac0 Tl0 3.438220 1_555
Ac0 Tl1 3.438234 1_555
Ac0 Na0 3.970102 1_445
Ac0 Na0 3.970104 1_454
Ac0 Na0 3.970104 1_544
Ac0 Na0 3.970118 1_554
Ac0 Na0 3.970120 1_455
Ac0 Na0 3.970120 1_545
Tl0 Tl1 3.970102 1_445
Tl0 Tl1 3.970104 1_544
Tl0 Tl1 3.970104 1_454
Tl0 Tl1 3.970118 1_554
Tl0 Tl1 3.970120 1_545
Tl0 Tl1 3.970120 1_455
