# generated using pymatgen
data_Li4VF6
_symmetry_space_group_name_H-M   'P 1'
_cell_length_a   5.49931113
_cell_length_b   5.49931113
_cell_length_c   10.70530831
_cell_angle_alpha   82.61215698
_cell_angle_beta   82.61215698
_cell_angle_gamma   57.58456007
_symmetry_Int_Tables_number   1
_chemical_formula_structural   Li4VF6
_chemical_formula_sum   'Li8 V2 F12'
_cell_volume   270.35026858
_cell_formula_units_Z   2
loop_
 _symmetry_equiv_pos_site_id
 _symmetry_equiv_pos_as_xyz
  1  'x, y, z'
loop_
 _atom_site_type_symbol
 _atom_site_label
 _atom_site_symmetry_multiplicity
 _atom_site_fract_x
 _atom_site_fract_y
 _atom_site_fract_z
 _atom_site_occupancy
  Li  Li0  1  0.99950700  0.27179400  0.92527600  1
  Li  Li1  1  0.63194800  0.00717600  0.82503000  1
  Li  Li2  1  0.16449200  0.78242400  0.69558600  1
  Li  Li3  1  0.78242400  0.16449200  0.19558600  1
  Li  Li4  1  0.54437600  0.25096600  0.55330100  1
  Li  Li5  1  0.27179400  0.99950700  0.42527600  1
  Li  Li6  1  0.25096600  0.54437600  0.05330100  1
  Li  Li7  1  0.00717600  0.63194800  0.32503000  1
  V  V0  1  0.95765900  0.36442400  0.64709700  1
  V  V1  1  0.36442400  0.95765900  0.14709700  1
  F  F0  1  0.38520300  0.18335200  0.96925300  1
  F  F1  1  0.94393500  0.62070000  0.78713800  1
  F  F2  1  0.39337200  0.10961000  0.69217000  1
  F  F3  1  0.04354100  0.96267100  0.05262200  1
  F  F4  1  0.52234000  0.58670400  0.59687900  1
  F  F5  1  0.14524000  0.88253300  0.30313900  1
  F  F6  1  0.18335200  0.38520300  0.46925300  1
  F  F7  1  0.96267100  0.04354100  0.55262200  1
  F  F8  1  0.88253300  0.14524000  0.80313900  1
  F  F9  1  0.58670400  0.52234000  0.09687900  1
  F  F10  1  0.62070000  0.94393500  0.28713800  1
  F  F11  1  0.10961000  0.39337200  0.19217000  1
loop_
_geom_bond_atom_site_label_1
_geom_bond_atom_site_label_2
_geom_bond_distance
_geom_bond_site_symmetry_2
F0 Li1 1.897409 1_555
F0 Li6 2.003382 1_556
F0 Li0 2.012215 1_455
F0 V1 2.160249 1_546
F1 Li1 1.938720 1_565
F1 Li2 1.961975 1_655
F1 V0 2.154000 1_555
F1 Li0 2.172486 1_555
F2 Li1 1.882318 1_555
F2 Li4 1.892450 1_555
F2 V0 2.112229 1_455
F3 Li6 1.943558 1_555
F3 Li3 1.949143 1_465
F3 Li0 1.963314 1_464
F3 V1 2.130084 1_555
F4 Li4 1.899564 1_555
F4 Li2 1.906469 1_555
F4 V0 2.130465 1_555
F4 Li5 2.579100 1_555
F5 Li7 1.877052 1_555
F5 Li5 1.880973 1_555
F5 V1 2.062199 1_555
F5 Li3 2.127385 1_465
F6 Li7 1.897409 1_555
F6 Li4 2.003382 1_555
F6 Li5 2.012215 1_545
F6 V0 2.160249 1_455
F7 Li4 1.943558 1_555
F7 Li2 1.949143 1_645
F7 Li5 1.963314 1_645
F7 V0 2.130084 1_555
F8 Li1 1.877052 1_555
F8 Li0 1.880973 1_555
F8 V0 2.062199 1_555
F8 Li2 2.127385 1_645
F9 Li6 1.899564 1_555
F9 Li3 1.906469 1_555
F9 V1 2.130465 1_555
F9 Li0 2.579100 1_554
F10 Li7 1.938720 1_655
F10 Li3 1.961975 1_565
F10 V1 2.154000 1_555
F10 Li5 2.172486 1_555
F11 Li7 1.882318 1_555
F11 Li6 1.892450 1_555
F11 V1 2.112229 1_545
