# generated using pymatgen
data_TaTiMn2
_symmetry_space_group_name_H-M   'P 1'
_cell_length_a   4.25870423
_cell_length_b   4.25870423
_cell_length_c   4.25870423
_cell_angle_alpha   60.00000000
_cell_angle_beta   60.00000000
_cell_angle_gamma   60.00000000
_symmetry_Int_Tables_number   1
_chemical_formula_structural   TaTiMn2
_chemical_formula_sum   'Ta1 Ti1 Mn2'
_cell_volume   54.61569183
_cell_formula_units_Z   1
loop_
 _symmetry_equiv_pos_site_id
 _symmetry_equiv_pos_as_xyz
  1  'x, y, z'
loop_
 _atom_site_type_symbol
 _atom_site_label
 _atom_site_symmetry_multiplicity
 _atom_site_fract_x
 _atom_site_fract_y
 _atom_site_fract_z
 _atom_site_occupancy
  Ta  Ta0  1  0.24999900  0.24999900  0.24999900  1
  Ti  Ti0  1  0.75000000  0.75000000  0.75000000  1
  Mn  Mn0  1  -0.00000000  -0.00000000  -0.00000000  1
  Mn  Mn1  1  0.50000000  0.50000000  0.50000000  1
loop_
_geom_bond_atom_site_label_1
_geom_bond_atom_site_label_2
_geom_bond_distance
_geom_bond_site_symmetry_2
Ta0 Ti0 3.011353 1_445
Ta0 Ti0 3.011353 1_544
Ta0 Ti0 3.011353 1_454
Ta0 Ti0 3.011365 1_545
Ta0 Ti0 3.011365 1_455
Ta0 Ti0 3.011365 1_554
Mn0 Ta0 2.607903 1_555
Mn0 Ti0 2.607913 1_544
Mn0 Ti0 2.607913 1_444
Mn0 Ti0 2.607913 1_454
Mn0 Ti0 2.607913 1_445
Mn0 Ta0 2.607917 1_554
Mn0 Ta0 2.607917 1_455
Mn0 Ta0 2.607917 1_545
Mn0 Mn1 3.011359 1_445
Mn0 Mn1 3.011359 1_544
Mn0 Mn1 3.011359 1_545
Mn0 Mn1 3.011359 1_554
Mn0 Mn1 3.011359 1_454
Mn0 Mn1 3.011359 1_455
Mn1 Ta0 2.607910 1_565
Mn1 Ta0 2.607910 1_556
Mn1 Ta0 2.607910 1_655
Mn1 Ti0 2.607913 1_455
Mn1 Ti0 2.607913 1_545
Mn1 Ti0 2.607913 1_555
Mn1 Ti0 2.607913 1_554
Mn1 Ta0 2.607924 1_555
