# generated using pymatgen
data_Li3P7W5O29
_symmetry_space_group_name_H-M   'P 1'
_cell_length_a   6.54310000
_cell_length_b   10.84966175
_cell_length_c   19.05679977
_cell_angle_alpha   91.86185720
_cell_angle_beta   94.97547706
_cell_angle_gamma   107.42131622
_symmetry_Int_Tables_number   1
_chemical_formula_structural   Li3P7W5O29
_chemical_formula_sum   'Li6 P14 W10 O58'
_cell_volume   1283.49581925
_cell_formula_units_Z   2
loop_
 _symmetry_equiv_pos_site_id
 _symmetry_equiv_pos_as_xyz
  1  'x, y, z'
loop_
 _atom_site_type_symbol
 _atom_site_label
 _atom_site_symmetry_multiplicity
 _atom_site_fract_x
 _atom_site_fract_y
 _atom_site_fract_z
 _atom_site_occupancy
  Li  Li0  1  0.45963300  0.08341400  0.46416400  1
  Li  Li1  1  0.31200600  0.60791300  0.23843100  1
  Li  Li2  1  0.14149200  0.31479600  0.14420100  1
  Li  Li3  1  0.87757100  0.08784900  0.92946700  1
  Li  Li4  1  0.87736900  0.67902500  0.86216600  1
  Li  Li5  1  0.69325000  0.39250500  0.75949100  1
  P  P0  1  0.16658300  0.56591600  0.78720900  1
  P  P1  1  0.03325100  0.32347200  0.54767300  1
  P  P2  1  0.17091400  0.34798300  0.98859300  1
  P  P3  1  0.39701700  0.95550400  0.65973700  1
  P  P4  1  0.24928200  0.28543400  0.42489600  1
  P  P5  1  0.40051600  0.78216000  0.14601600  1
  P  P6  1  0.07332000  0.07768100  0.19839700  1
  P  P7  1  0.92844900  0.91774800  0.80438700  1
  P  P8  1  0.60424900  0.21695000  0.85534400  1
  P  P9  1  0.75862100  0.70939500  0.57970600  1
  P  P10  1  0.60481300  0.04217600  0.34277600  1
  P  P11  1  0.81871500  0.64695100  0.01191900  1
  P  P12  1  0.96828300  0.67158500  0.45550400  1
  P  P13  1  0.84106800  0.43221000  0.21437200  1
  W  W0  1  0.06139200  0.94925400  0.35465000  1
  W  W1  1  0.31841900  0.67376100  0.96891300  1
  W  W2  1  0.42282900  0.87398000  0.84234300  1
  W  W3  1  0.11152000  0.25001900  0.81091700  1
  W  W4  1  0.21509500  0.63339500  0.61172300  1
  W  W5  1  0.79143300  0.36478600  0.39042900  1
  W  W6  1  0.88967800  0.74828100  0.18698300  1
  W  W7  1  0.58077100  0.12380200  0.15919700  1
  W  W8  1  0.67344200  0.32348900  0.03289700  1
  W  W9  1  0.93399000  0.03960700  0.64474100  1
  O  O0  1  0.00440400  0.69625600  0.96395100  1
  O  O1  1  0.09283500  0.85039000  0.83431100  1
  O  O2  1  0.00353700  0.94067500  0.16500400  1
  O  O3  1  0.03534500  0.80836700  0.43191900  1
  O  O4  1  0.16917400  0.47851200  0.96019100  1
  O  O5  1  0.14527700  0.64056800  0.50254300  1
  O  O6  1  0.40874500  0.93186300  0.73863100  1
  O  O7  1  0.29179200  0.66477000  0.85155100  1
  O  O8  1  0.44643400  0.85292900  0.94289800  1
  O  O9  1  0.13629200  0.25002000  0.92406100  1
  O  O10  1  0.03133400  0.18649400  0.71369300  1
  O  O11  1  0.32508000  0.82759000  0.61338700  1
  O  O12  1  0.11707900  0.43100000  0.60759300  1
  O  O13  1  0.23570300  0.44143500  0.79889000  1
  O  O14  1  0.26526800  0.62757900  0.72215700  1
  O  O15  1  0.20094800  0.73406800  0.18708500  1
  O  O16  1  0.08000100  0.32928400  0.37948800  1
  O  O17  1  0.08152100  0.44970600  0.21212000  1
  O  O18  1  0.38593900  0.96214900  0.36821400  1
  O  O19  1  0.24472100  0.33721800  0.50489700  1
  O  O20  1  0.47012100  0.92549700  0.13562600  1
  O  O21  1  0.35426900  0.70589800  0.07336700  1
  O  O22  1  0.10001600  0.08648800  0.27898700  1
  O  O23  1  0.20410800  0.13731200  0.42618800  1
  O  O24  1  0.61388500  0.63473100  0.96240600  1
  O  O25  1  0.71391200  0.83804500  0.83215500  1
  O  O26  1  0.24175700  0.03350600  0.63745900  1
  O  O27  1  0.53199100  0.64231000  0.59920300  1
  O  O28  1  0.42727400  0.24085700  0.80381200  1
  O  O29  1  0.56445700  0.73621200  0.19387600  1
  O  O30  1  0.47483800  0.35582000  0.40561600  1
  O  O31  1  0.76260000  0.96618600  0.36381100  1
  O  O32  1  0.28960400  0.15988900  0.17167200  1
  O  O33  1  0.37359300  0.35753000  0.03826000  1
  O  O34  1  0.82344800  0.85691500  0.58133700  1
  O  O35  1  0.90512300  0.90970700  0.72454600  1
  O  O36  1  0.62422200  0.29451200  0.92664100  1
  O  O37  1  0.57976600  0.07572100  0.87198000  1
  O  O38  1  0.75924400  0.65758500  0.49878300  1
  O  O39  1  0.61835700  0.03620800  0.63823200  1
  O  O40  1  0.92554700  0.54569200  0.78900700  1
  O  O41  1  0.91812700  0.65432200  0.62391100  1
  O  O42  1  0.80618800  0.27437200  0.81649100  1
  O  O43  1  0.74568700  0.37096700  0.28049100  1
  O  O44  1  0.77671400  0.55688400  0.20350300  1
  O  O45  1  0.88610400  0.56410000  0.39440100  1
  O  O46  1  0.66867400  0.16662700  0.39429300  1
  O  O47  1  0.96696800  0.80496300  0.28719400  1
  O  O48  1  0.83899300  0.73648400  0.07740700  1
  O  O49  1  0.55775700  0.14398100  0.05837600  1
  O  O50  1  0.70816800  0.33409100  0.15031300  1
  O  O51  1  0.59053200  0.07349700  0.26623000  1
  O  O52  1  0.85647900  0.35296100  0.49916700  1
  O  O53  1  0.82701400  0.51456900  0.03797200  1
  O  O54  1  0.96178800  0.18561800  0.56939100  1
  O  O55  1  0.99274000  0.05635800  0.83914100  1
  O  O56  1  0.91158500  0.15002500  0.17071000  1
  O  O57  1  0.98211300  0.29411800  0.03470500  1
loop_
_geom_bond_atom_site_label_1
_geom_bond_atom_site_label_2
_geom_bond_distance
_geom_bond_site_symmetry_2
Li0 O23 2.015961 1_555
Li0 O46 2.028163 1_555
Li0 O18 2.148908 1_545
Li1 O17 1.932601 1_555
Li1 O15 1.979441 1_555
Li1 O29 2.080947 1_555
Li2 O17 2.068973 1_555
Li2 O56 2.072254 1_455
Li2 O57 2.223500 1_455
Li2 O32 2.232134 1_555
Li2 O33 2.601590 1_555
Li3 O55 1.997123 1_555
Li3 O9 2.056855 1_655
Li3 O37 2.116887 1_555
Li4 O0 2.022868 1_655
Li4 O1 2.085801 1_655
Li4 O40 2.086635 1_555
Li4 O25 2.347465 1_555
Li4 O24 2.643293 1_555
Li5 O40 1.915004 1_555
Li5 O42 1.971576 1_555
Li5 O28 2.253853 1_555
O0 P11 1.559870 1_456
O0 W1 2.134968 1_555
O1 P7 1.551628 1_455
O1 W2 2.088116 1_555
O2 P6 1.518141 1_565
O2 W6 2.065789 1_455
O3 P12 1.511471 1_455
O3 W0 2.137204 1_555
O4 P2 1.535280 1_555
O4 W1 2.044274 1_555
O5 P12 1.526719 1_455
O5 W4 2.100160 1_555
O6 P3 1.532620 1_555
O6 W2 2.095909 1_555
O7 P0 1.593459 1_555
O7 W2 2.191986 1_555
O7 W1 2.224872 1_555
O7 O8 2.539364 1_555
O8 W2 1.935532 1_555
O8 W1 1.971254 1_555
O9 P2 1.554320 1_555
O9 W3 2.148182 1_555
O10 W3 1.927425 1_555
O10 W9 1.945001 1_455
O11 P3 1.544302 1_555
O11 W4 2.010451 1_555
O12 P1 1.545131 1_555
O12 W4 2.091957 1_555
O13 P0 1.563959 1_555
O13 W3 2.019562 1_555
O14 P0 1.528205 1_555
O14 W4 2.107592 1_555
O15 P5 1.544574 1_555
O15 W6 2.087871 1_455
O16 P4 1.542079 1_555
O16 W5 2.062869 1_455
O17 P13 1.531856 1_455
O18 P10 1.563022 1_565
O18 W0 2.078549 1_555
O19 P4 1.613418 1_555
O19 P1 1.637460 1_555
O20 P5 1.508868 1_555
O20 W7 2.074397 1_565
O21 P5 1.547863 1_555
O21 W1 1.990944 1_554
O22 P6 1.527162 1_555
O22 W0 2.082612 1_545
O23 P4 1.545981 1_555
O23 W0 2.313262 1_545
O24 P11 1.539545 1_556
O24 W1 2.112010 1_555
O25 P7 1.558849 1_555
O25 W2 2.078704 1_555
O26 P3 1.546548 1_545
O26 W9 2.050981 1_455
O27 P9 1.527600 1_555
O27 W4 2.081545 1_555
O28 P8 1.540035 1_555
O28 W3 2.113583 1_555
O29 P5 1.552762 1_555
O29 W6 2.108398 1_555
O30 P4 1.527643 1_555
O30 W5 2.090346 1_555
O31 P10 1.538080 1_565
O31 W0 2.039247 1_655
O32 P6 1.567271 1_555
O32 W7 2.087706 1_555
O33 P2 1.535872 1_554
O33 W8 2.112413 1_555
O34 P9 1.526624 1_555
O34 W9 2.178601 1_565
O35 P7 1.512954 1_555
O35 W9 2.089169 1_565
O36 P8 1.549302 1_555
O36 W8 2.021798 1_556
O37 P8 1.538657 1_555
O37 W2 2.153505 1_545
O38 P9 1.624902 1_555
O38 P12 1.628953 1_555
O39 P3 1.548874 1_545
O39 W9 2.047324 1_555
O40 P0 1.529471 1_655
O41 P9 1.552268 1_555
O41 W4 2.054297 1_655
O42 P8 1.545626 1_555
O42 W3 2.103198 1_655
O43 P13 1.536599 1_555
O43 W5 2.096609 1_555
O44 P13 1.547274 1_555
O44 W6 2.030132 1_555
O45 P12 1.559700 1_555
O45 W5 2.060322 1_555
O46 P10 1.570501 1_555
O46 W5 2.063833 1_555
O47 W0 1.907180 1_655
O47 W6 1.962357 1_555
O48 P11 1.527756 1_555
O48 W6 2.079400 1_555
O49 W7 1.938811 1_555
O49 W8 1.960693 1_555
O49 O50 2.557961 1_555
O50 P13 1.599004 1_555
O50 W7 2.199957 1_555
O50 W8 2.225091 1_555
O51 P10 1.509855 1_555
O51 W7 2.129081 1_555
O52 P1 1.532966 1_655
O52 W5 2.094898 1_555
O53 P11 1.549441 1_555
O53 W8 2.009910 1_555
O54 P1 1.510623 1_655
O54 W9 2.150617 1_555
O55 P7 1.544465 1_545
O55 W3 2.115725 1_655
O56 P6 1.562623 1_655
O56 W7 2.087861 1_555
O57 P2 1.558584 1_654
O57 W8 2.134433 1_555
