# generated using pymatgen
data_V2CrOs
_symmetry_space_group_name_H-M   'P 1'
_cell_length_a   4.21811998
_cell_length_b   4.21811998
_cell_length_c   4.21811998
_cell_angle_alpha   60.00000000
_cell_angle_beta   60.00000000
_cell_angle_gamma   60.00000000
_symmetry_Int_Tables_number   1
_chemical_formula_structural   V2CrOs
_chemical_formula_sum   'V2 Cr1 Os1'
_cell_volume   53.06910792
_cell_formula_units_Z   1
loop_
 _symmetry_equiv_pos_site_id
 _symmetry_equiv_pos_as_xyz
  1  'x, y, z'
loop_
 _atom_site_type_symbol
 _atom_site_label
 _atom_site_symmetry_multiplicity
 _atom_site_fract_x
 _atom_site_fract_y
 _atom_site_fract_z
 _atom_site_occupancy
  V  V0  1  0.50000100  0.50000100  0.50000100  1
  V  V1  1  -0.00000000  -0.00000000  -0.00000000  1
  Cr  Cr0  1  0.25000000  0.25000000  0.25000000  1
  Os  Os0  1  0.75000100  0.75000100  0.75000100  1
loop_
_geom_bond_atom_site_label_1
_geom_bond_atom_site_label_2
_geom_bond_distance
_geom_bond_site_symmetry_2
V0 V1 2.982655 1_656
V0 V1 2.982655 1_665
V0 V1 2.982655 1_566
V0 V1 2.982667 1_556
V0 V1 2.982667 1_565
V0 V1 2.982667 1_655
Cr0 V0 2.583057 1_554
Cr0 V0 2.583057 1_455
Cr0 V0 2.583057 1_545
Cr0 V1 2.583060 1_655
Cr0 V1 2.583060 1_555
Cr0 V1 2.583060 1_556
Cr0 V1 2.583060 1_565
Cr0 V0 2.583071 1_555
Cr0 Os0 2.982655 1_445
Cr0 Os0 2.982655 1_454
Cr0 Os0 2.982655 1_544
Cr0 Os0 2.982667 1_554
Cr0 Os0 2.982667 1_545
Cr0 Os0 2.982667 1_455
Os0 V1 2.583050 1_666
Os0 V0 2.583060 1_555
Os0 V0 2.583060 1_556
Os0 V0 2.583060 1_655
Os0 V0 2.583060 1_565
Os0 V1 2.583064 1_566
Os0 V1 2.583064 1_665
Os0 V1 2.583064 1_656
