# generated using pymatgen
data_NiH12S2(NO5)2
_symmetry_space_group_name_H-M   'P 1'
_cell_length_a   6.67255713
_cell_length_b   11.47744474
_cell_length_c   13.72645729
_cell_angle_alpha   99.93330082
_cell_angle_beta   88.99395113
_cell_angle_gamma   100.98319741
_symmetry_Int_Tables_number   1
_chemical_formula_structural   NiH12S2(NO5)2
_chemical_formula_sum   'Ni4 H48 S8 N8 O40'
_cell_volume   1016.37311114
_cell_formula_units_Z   4
loop_
 _symmetry_equiv_pos_site_id
 _symmetry_equiv_pos_as_xyz
  1  'x, y, z'
loop_
 _atom_site_type_symbol
 _atom_site_label
 _atom_site_symmetry_multiplicity
 _atom_site_fract_x
 _atom_site_fract_y
 _atom_site_fract_z
 _atom_site_occupancy
  Ni  Ni0  1  0.99968300  0.00022000  0.50006300  1
  Ni  Ni1  1  0.50017700  0.49991600  0.25005200  1
  Ni  Ni2  1  0.00004900  0.00010600  0.00011300  1
  Ni  Ni3  1  0.49994000  0.49987000  0.74992100  1
  H  H0  1  0.39571100  0.10325200  0.07596500  1
  H  H1  1  0.39556400  0.10318500  0.57587900  1
  H  H2  1  0.89573700  0.60321400  0.32597700  1
  H  H3  1  0.89553300  0.60318600  0.82594200  1
  H  H4  1  0.10429800  0.39673700  0.67404500  1
  H  H5  1  0.10449700  0.39681600  0.17412500  1
  H  H6  1  0.60446800  0.89680300  0.92406700  1
  H  H7  1  0.60432800  0.89677900  0.42402700  1
  H  H8  1  0.82054000  0.12188600  0.15295200  1
  H  H9  1  0.82043500  0.12181500  0.65296900  1
  H  H10  1  0.32067800  0.62172700  0.40291200  1
  H  H11  1  0.32060500  0.62162900  0.90287900  1
  H  H12  1  0.67944300  0.37809200  0.59704500  1
  H  H13  1  0.67956500  0.37819700  0.09703900  1
  H  H14  1  0.17937000  0.87834800  0.84712000  1
  H  H15  1  0.17931900  0.87829700  0.34709100  1
  H  H16  1  0.38848000  0.09154500  0.45919400  1
  H  H17  1  0.38857700  0.09155400  0.95927400  1
  H  H18  1  0.88850900  0.59157200  0.70925100  1
  H  H19  1  0.88855400  0.59161000  0.20928500  1
  H  H20  1  0.11155200  0.40846600  0.29082000  1
  H  H21  1  0.11145500  0.40845300  0.79073600  1
  H  H22  1  0.61146500  0.90838500  0.54072300  1
  H  H23  1  0.61152000  0.90844300  0.04075900  1
  H  H24  1  0.05388300  0.12598200  0.18201300  1
  H  H25  1  0.05382500  0.12591400  0.68199200  1
  H  H26  1  0.55394900  0.62591000  0.43204100  1
  H  H27  1  0.55392100  0.62586000  0.93196500  1
  H  H28  1  0.44611600  0.37401200  0.56799600  1
  H  H29  1  0.44617900  0.37407900  0.06803100  1
  H  H30  1  0.94607600  0.87412600  0.81804300  1
  H  H31  1  0.94607500  0.87411300  0.31799200  1
  H  H32  1  0.80878300  0.13554600  0.40400400  1
  H  H33  1  0.80888100  0.13552600  0.90406500  1
  H  H34  1  0.30876500  0.63552300  0.65411200  1
  H  H35  1  0.30888100  0.63545100  0.15410300  1
  H  H36  1  0.69125300  0.36446000  0.34597900  1
  H  H37  1  0.69110700  0.36446100  0.84594900  1
  H  H38  1  0.19114600  0.86452500  0.59587000  1
  H  H39  1  0.19122900  0.86448200  0.09590700  1
  H  H40  1  0.04756100  0.13707500  0.36520500  1
  H  H41  1  0.04765500  0.13711900  0.86525000  1
  H  H42  1  0.54750000  0.63705400  0.61528800  1
  H  H43  1  0.54763500  0.63704400  0.11527200  1
  H  H44  1  0.45249100  0.36294300  0.38478200  1
  H  H45  1  0.45230600  0.36287700  0.88473200  1
  H  H46  1  0.95240800  0.86295100  0.63470000  1
  H  H47  1  0.95246900  0.86295600  0.13470200  1
  S  S0  1  0.47329500  0.19818400  0.27809100  1
  S  S1  1  0.47325700  0.19814600  0.77808000  1
  S  S2  1  0.97320600  0.69817700  0.52804800  1
  S  S3  1  0.97318900  0.69816500  0.02803800  1
  S  S4  1  0.02674200  0.30182200  0.47190500  1
  S  S5  1  0.02671300  0.30184600  0.97191100  1
  S  S6  1  0.52684100  0.80183100  0.72195200  1
  S  S7  1  0.52674500  0.80180000  0.22191200  1
  N  N0  1  0.54030600  0.34908000  0.32243100  1
  N  N1  1  0.54016300  0.34902400  0.82239500  1
  N  N2  1  0.04019500  0.84910100  0.57233500  1
  N  N3  1  0.04029100  0.84909500  0.07235200  1
  N  N4  1  0.95973100  0.15093800  0.42755200  1
  N  N5  1  0.95983900  0.15096600  0.92760100  1
  N  N6  1  0.45971400  0.65090600  0.67765000  1
  N  N7  1  0.45983900  0.65089100  0.17762900  1
  O  O0  1  0.25125600  0.17783200  0.26529900  1
  O  O1  1  0.25123300  0.17780000  0.76529000  1
  O  O2  1  0.75117200  0.67782400  0.51531000  1
  O  O3  1  0.75116600  0.67785500  0.01531800  1
  O  O4  1  0.24874300  0.32216900  0.48469800  1
  O  O5  1  0.24874900  0.32222300  0.98469300  1
  O  O6  1  0.74886100  0.82212700  0.73465500  1
  O  O7  1  0.74876100  0.82218400  0.23470200  1
  O  O8  1  0.93602300  0.07921300  0.14086600  1
  O  O9  1  0.93595400  0.07917400  0.64084500  1
  O  O10  1  0.43625100  0.57911100  0.39079800  1
  O  O11  1  0.43615600  0.57901500  0.89078500  1
  O  O12  1  0.56398400  0.42078400  0.60913900  1
  O  O13  1  0.56405100  0.42083600  0.10917000  1
  O  O14  1  0.06387100  0.92097400  0.85922500  1
  O  O15  1  0.06377200  0.92092500  0.35922000  1
  O  O16  1  0.58078100  0.17756900  0.18443500  1
  O  O17  1  0.58077900  0.17755200  0.68441300  1
  O  O18  1  0.08049600  0.67744200  0.43431700  1
  O  O19  1  0.08042900  0.67742200  0.93430300  1
  O  O20  1  0.91922500  0.32243000  0.56556900  1
  O  O21  1  0.91921500  0.32244100  0.06558200  1
  O  O22  1  0.41958100  0.82257900  0.81569900  1
  O  O23  1  0.41921100  0.82244200  0.31557500  1
  O  O24  1  0.31442200  0.06294900  0.51615000  1
  O  O25  1  0.31459600  0.06295000  0.01623500  1
  O  O26  1  0.81446400  0.56293800  0.76617900  1
  O  O27  1  0.81461100  0.56293600  0.26622600  1
  O  O28  1  0.18560000  0.43706400  0.23386300  1
  O  O29  1  0.18541900  0.43704500  0.73377700  1
  O  O30  1  0.68536800  0.93707100  0.48377400  1
  O  O31  1  0.68554900  0.93706300  0.98383000  1
  O  O32  1  0.53731500  0.13637000  0.35424900  1
  O  O33  1  0.53735300  0.13633500  0.85421900  1
  O  O34  1  0.03725400  0.63639500  0.60423500  1
  O  O35  1  0.03724800  0.63639300  0.10422900  1
  O  O36  1  0.96272600  0.36363300  0.39574800  1
  O  O37  1  0.96265900  0.36365200  0.89575900  1
  O  O38  1  0.46276300  0.86360800  0.64577200  1
  O  O39  1  0.46272300  0.86361700  0.14574500  1
loop_
_geom_bond_atom_site_label_1
_geom_bond_atom_site_label_2
_geom_bond_distance
_geom_bond_site_symmetry_2
Ni0 O9 2.061588 1_555
Ni0 O15 2.064209 1_645
Ni0 O30 2.086925 1_545
Ni0 O24 2.088753 1_655
Ni1 O10 2.062403 1_555
Ni1 O13 2.063489 1_555
Ni1 O27 2.087367 1_555
Ni1 O28 2.088016 1_555
Ni2 O8 2.062347 1_455
Ni2 O14 2.063654 1_544
Ni2 O25 2.087756 1_555
Ni2 O31 2.087914 1_444
Ni3 O12 2.062645 1_555
Ni3 O11 2.063350 1_555
Ni3 O29 2.087582 1_555
Ni3 O26 2.088082 1_555
H0 O25 0.984104 1_555
H0 O16 1.922086 1_555
H1 O24 0.984011 1_555
H1 O17 1.923369 1_555
H2 O27 0.984297 1_555
H2 O18 1.919442 1_655
H3 O26 0.984166 1_555
H3 O19 1.920186 1_655
H4 O29 0.984159 1_555
H4 O20 1.922134 1_455
H5 O28 0.984012 1_555
H5 O21 1.923730 1_455
H6 O31 0.984234 1_555
H6 O22 1.920194 1_555
H7 O30 0.984018 1_555
H7 O23 1.922133 1_555
H8 O8 0.986135 1_555
H8 O16 1.850569 1_555
H9 O9 0.986155 1_555
H9 O17 1.850139 1_555
H10 O10 0.986283 1_555
H10 O18 1.853187 1_555
H11 O11 0.986122 1_555
H11 O19 1.853611 1_555
H12 O12 0.986138 1_555
H12 O20 1.850583 1_555
H13 O13 0.986118 1_555
H13 O21 1.850233 1_555
H14 O14 0.985914 1_555
H14 O22 1.853692 1_555
H15 O15 0.986231 1_555
H15 O23 1.852391 1_555
H16 O24 0.988073 1_555
H16 O32 1.826698 1_555
H17 O25 0.987948 1_556
H17 O33 1.827602 1_555
H18 O26 0.987877 1_555
H18 O34 1.827211 1_655
H19 O27 0.987911 1_555
H19 O35 1.827360 1_655
H20 O28 0.988065 1_555
H20 O36 1.826505 1_455
H21 O29 0.987826 1_555
H21 O37 1.827373 1_455
H22 O30 0.987942 1_555
H22 O38 1.827284 1_555
H23 O31 0.987783 1_554
H23 O39 1.827046 1_555
H24 O8 0.987804 1_455
H24 O0 1.707355 1_555
H25 O9 0.987758 1_455
H25 O1 1.707661 1_555
H26 O10 0.987795 1_555
H26 O2 1.706556 1_555
H27 O11 0.987838 1_555
H27 O3 1.707461 1_556
H28 O12 0.987825 1_555
H28 O4 1.707451 1_555
H29 O13 0.987766 1_555
H29 O5 1.708079 1_554
H30 O14 0.988002 1_655
H30 O6 1.707621 1_555
H31 O15 0.987733 1_655
H31 O7 1.707186 1_555
H32 N4 1.036383 1_555
H32 O32 1.949318 1_555
H33 N5 1.036359 1_555
H33 O33 1.950110 1_555
H34 N6 1.036355 1_555
H34 O34 1.950336 1_555
H35 N7 1.036318 1_555
H35 O35 1.951278 1_555
H36 N0 1.036386 1_555
H36 O36 1.949428 1_555
H37 N1 1.036347 1_555
H37 O37 1.950078 1_555
H38 N2 1.036323 1_555
H38 O38 1.951250 1_555
H39 N3 1.036352 1_555
H39 O39 1.950013 1_555
H40 N4 1.035428 1_455
H40 O0 1.964784 1_555
H41 N5 1.035396 1_455
H41 O1 1.964630 1_555
H42 N6 1.035406 1_555
H42 O2 1.965439 1_555
H43 N7 1.035383 1_555
H43 O3 1.964710 1_555
H44 N0 1.035414 1_555
H44 O4 1.965152 1_555
H45 N1 1.035411 1_555
H45 O5 1.964481 1_555
H46 N2 1.035439 1_655
H46 O6 1.964821 1_555
H47 N3 1.035427 1_655
H47 O7 1.965816 1_555
N0 S0 1.708993 1_555
N0 Ni1 2.198913 1_555
N1 S1 1.708690 1_555
N1 Ni3 2.199960 1_555
N2 S2 1.709137 1_455
N2 Ni0 2.201651 1_465
N3 S3 1.709324 1_455
N3 Ni2 2.199777 1_565
N4 S4 1.708902 1_655
N4 Ni0 2.198450 1_555
N5 S5 1.708683 1_655
N5 Ni2 2.200386 1_656
N6 S6 1.709254 1_555
N6 Ni3 2.200261 1_555
N7 S7 1.708930 1_555
N7 Ni1 2.201077 1_555
O0 S0 1.464088 1_555
O1 S1 1.463990 1_555
O2 S2 1.463973 1_555
O3 S3 1.463900 1_555
O4 S4 1.463843 1_555
O5 S5 1.464038 1_555
O6 S6 1.463864 1_555
O7 S7 1.463914 1_555
O16 S0 1.466420 1_555
O17 S1 1.466644 1_555
O18 S2 1.466769 1_455
O19 S3 1.466657 1_456
O20 S4 1.466609 1_655
O21 S5 1.466610 1_654
O22 S6 1.466868 1_555
O23 S7 1.466695 1_555
O32 S0 1.471625 1_555
O33 S1 1.471594 1_555
O34 S2 1.471775 1_455
O35 S3 1.471772 1_455
O36 S4 1.471581 1_655
O37 S5 1.471588 1_655
O38 S6 1.471739 1_555
O39 S7 1.471752 1_555
