# generated using pymatgen
data_SmZn2Ag
_symmetry_space_group_name_H-M   'P 1'
_cell_length_a   4.75585840
_cell_length_b   4.75585986
_cell_length_c   4.75585839
_cell_angle_alpha   59.99996941
_cell_angle_beta   60.00008160
_cell_angle_gamma   60.00001018
_symmetry_Int_Tables_number   1
_chemical_formula_structural   SmZn2Ag
_chemical_formula_sum   'Sm1 Zn2 Ag1'
_cell_volume   76.06276044
_cell_formula_units_Z   1
loop_
 _symmetry_equiv_pos_site_id
 _symmetry_equiv_pos_as_xyz
  1  'x, y, z'
loop_
 _atom_site_type_symbol
 _atom_site_label
 _atom_site_symmetry_multiplicity
 _atom_site_fract_x
 _atom_site_fract_y
 _atom_site_fract_z
 _atom_site_occupancy
  Sm  Sm0  1  0.75000000  0.75000000  0.75000000  1
  Zn  Zn0  1  -0.00000000  -0.00000000  0.00000000  1
  Zn  Zn1  1  0.50000100  0.50000100  0.50000100  1
  Ag  Ag0  1  0.25000100  0.25000100  0.25000100  1
loop_
_geom_bond_atom_site_label_1
_geom_bond_atom_site_label_2
_geom_bond_distance
_geom_bond_site_symmetry_2
Sm0 Zn1 2.912345 1_555
Sm0 Zn0 2.912356 1_666
Sm0 Zn0 2.912356 1_656
Sm0 Zn0 2.912358 1_665
Sm0 Zn0 2.912359 1_566
Sm0 Zn1 2.912360 1_565
Sm0 Zn1 2.912362 1_556
Sm0 Zn1 2.912363 1_655
Zn0 Zn1 3.362890 1_454
Zn0 Zn1 3.362895 1_445
Zn0 Zn1 3.362897 1_544
Zn0 Zn1 3.362904 1_545
Zn0 Zn1 3.362908 1_554
Zn0 Zn1 3.362910 1_455
Ag0 Zn0 2.912353 1_565
Ag0 Zn0 2.912354 1_556
Ag0 Zn0 2.912355 1_655
Ag0 Zn1 2.912356 1_555
Ag0 Zn1 2.912356 1_545
Ag0 Zn1 2.912358 1_554
Ag0 Zn1 2.912359 1_455
Ag0 Zn0 2.912368 1_555
Ag0 Sm0 3.362890 1_545
Ag0 Sm0 3.362895 1_554
Ag0 Sm0 3.362897 1_455
Ag0 Sm0 3.362904 1_454
Ag0 Sm0 3.362908 1_445
Ag0 Sm0 3.362910 1_544
