# generated using pymatgen
data_PmTlRh2
_symmetry_space_group_name_H-M   'P 1'
_cell_length_a   4.76765039
_cell_length_b   4.76765039
_cell_length_c   4.76765039
_cell_angle_alpha   60.00000000
_cell_angle_beta   60.00000000
_cell_angle_gamma   60.00000000
_symmetry_Int_Tables_number   1
_chemical_formula_structural   PmTlRh2
_chemical_formula_sum   'Pm1 Tl1 Rh2'
_cell_volume   76.62989059
_cell_formula_units_Z   1
loop_
 _symmetry_equiv_pos_site_id
 _symmetry_equiv_pos_as_xyz
  1  'x, y, z'
loop_
 _atom_site_type_symbol
 _atom_site_label
 _atom_site_symmetry_multiplicity
 _atom_site_fract_x
 _atom_site_fract_y
 _atom_site_fract_z
 _atom_site_occupancy
  Pm  Pm0  1  0.24999900  0.24999900  0.24999900  1
  Tl  Tl0  1  0.75000100  0.75000100  0.75000100  1
  Rh  Rh0  1  0.00000000  0.00000000  -0.00000000  1
  Rh  Rh1  1  0.49999900  0.49999900  0.49999900  1
loop_
_geom_bond_atom_site_label_1
_geom_bond_atom_site_label_2
_geom_bond_distance
_geom_bond_site_symmetry_2
Pm0 Rh0 2.919566 1_555
Pm0 Rh1 2.919578 1_555
Pm0 Rh1 2.919578 1_554
Pm0 Rh1 2.919578 1_455
Pm0 Rh1 2.919578 1_545
Pm0 Rh0 2.919582 1_556
Pm0 Rh0 2.919582 1_565
Pm0 Rh0 2.919582 1_655
Pm0 Tl0 3.371224 1_445
Pm0 Tl0 3.371224 1_544
Pm0 Tl0 3.371224 1_454
Pm0 Tl0 3.371251 1_545
Pm0 Tl0 3.371251 1_554
Pm0 Tl0 3.371251 1_455
Rh0 Tl0 2.919566 1_444
Rh0 Tl0 2.919582 1_445
Rh0 Tl0 2.919582 1_454
Rh0 Tl0 2.919582 1_544
Rh0 Rh1 3.371231 1_455
Rh0 Rh1 3.371231 1_545
Rh0 Rh1 3.371231 1_554
Rh0 Rh1 3.371245 1_445
Rh0 Rh1 3.371245 1_544
Rh0 Rh1 3.371245 1_454
Rh1 Tl0 2.919570 1_455
Rh1 Tl0 2.919570 1_545
Rh1 Tl0 2.919570 1_554
Rh1 Tl0 2.919601 1_555
