# generated using pymatgen
data_La3AlVS7
_symmetry_space_group_name_H-M   'P 1'
_cell_length_a   10.25069588
_cell_length_b   10.25069588
_cell_length_c   5.98483900
_cell_angle_alpha   90.00000000
_cell_angle_beta   90.00000000
_cell_angle_gamma   119.99999920
_symmetry_Int_Tables_number   1
_chemical_formula_structural   La3AlVS7
_chemical_formula_sum   'La6 Al2 V2 S14'
_cell_volume   544.61525826
_cell_formula_units_Z   2
loop_
 _symmetry_equiv_pos_site_id
 _symmetry_equiv_pos_as_xyz
  1  'x, y, z'
loop_
 _atom_site_type_symbol
 _atom_site_label
 _atom_site_symmetry_multiplicity
 _atom_site_fract_x
 _atom_site_fract_y
 _atom_site_fract_z
 _atom_site_occupancy
  La  La0  1  0.13859700  0.37311200  0.22820400  1
  La  La1  1  0.86140300  0.62688800  0.72820400  1
  La  La2  1  0.62688800  0.76548500  0.22820400  1
  La  La3  1  0.23451500  0.86140300  0.22820400  1
  La  La4  1  0.76548500  0.13859700  0.72820400  1
  La  La5  1  0.37311200  0.23451500  0.72820400  1
  Al  Al0  1  0.33333300  0.66666700  0.65016800  1
  Al  Al1  1  0.66666700  0.33333300  0.15016800  1
  V  V0  1  0.00000000  0.00000000  0.01280500  1
  V  V1  1  0.00000000  0.00000000  0.51280500  1
  S  S0  1  0.33333300  0.66666700  0.02117100  1
  S  S1  1  0.66666700  0.33333300  0.52117100  1
  S  S2  1  0.41703500  0.51831400  0.50604700  1
  S  S3  1  0.58296500  0.48168600  0.00604700  1
  S  S4  1  0.48168600  0.89872100  0.50604700  1
  S  S5  1  0.10127900  0.58296500  0.50604700  1
  S  S6  1  0.89872100  0.41703500  0.00604700  1
  S  S7  1  0.51831400  0.10127900  0.00604700  1
  S  S8  1  0.08422400  0.22477200  0.76500400  1
  S  S9  1  0.91577600  0.77522800  0.26500400  1
  S  S10  1  0.77522800  0.85945100  0.76500400  1
  S  S11  1  0.14054900  0.91577600  0.76500400  1
  S  S12  1  0.85945100  0.08422400  0.26500400  1
  S  S13  1  0.22477200  0.14054900  0.26500400  1
loop_
_geom_bond_atom_site_label_1
_geom_bond_atom_site_label_2
_geom_bond_distance
_geom_bond_site_symmetry_2
La0 S5 2.891656 1_555
La0 S12 2.920971 1_455
La0 S0 2.927141 1_555
La0 S13 2.935611 1_555
La0 S2 2.979696 1_555
La0 S6 3.020555 1_455
La0 S8 3.075759 1_554
La0 S8 3.478005 1_555
La1 S6 2.891656 1_556
La1 S11 2.920971 1_655
La1 S1 2.927141 1_555
La1 S10 2.935611 1_555
La1 S3 2.979696 1_556
La1 S5 3.020555 1_655
La1 S9 3.075759 1_555
La1 S9 3.478005 1_556
La2 S2 2.891656 1_555
La2 S9 2.920966 1_555
La2 S0 2.927142 1_555
La2 S12 2.935618 1_565
La2 S4 2.979696 1_555
La2 S3 3.020555 1_555
La2 S10 3.075758 1_554
La2 S10 3.478004 1_555
La3 S4 2.891656 1_555
La3 S13 2.920976 1_565
La3 S0 2.927134 1_555
La3 S9 2.935621 1_455
La3 S5 2.979696 1_555
La3 S7 3.020555 1_565
La3 S11 3.075754 1_554
La3 S11 3.478001 1_555
La4 S7 2.891656 1_556
La4 S10 2.920976 1_545
La4 S1 2.927134 1_555
La4 S8 2.935621 1_655
La4 S6 2.979696 1_556
La4 S4 3.020555 1_545
La4 S12 3.075754 1_555
La4 S12 3.478001 1_556
La5 S3 2.891656 1_556
La5 S8 2.920966 1_555
La5 S1 2.927142 1_555
La5 S11 2.935618 1_545
La5 S7 2.979696 1_556
La5 S2 3.020555 1_555
La5 S13 3.075758 1_555
La5 S13 3.478004 1_556
Al0 S0 2.220393 1_556
Al0 S5 2.257761 1_555
Al0 S4 2.257763 1_555
Al0 S2 2.257770 1_555
Al1 S1 2.220393 1_555
Al1 S6 2.257761 1_555
Al1 S7 2.257763 1_555
Al1 S3 2.257770 1_555
S8 V0 2.502863 1_556
S8 V1 2.518549 1_555
S9 V1 2.502863 1_665
S9 V0 2.518549 1_665
S10 V0 2.502864 1_666
S10 V1 2.518550 1_665
S11 V0 2.502871 1_566
S11 V1 2.518556 1_565
S12 V1 2.502871 1_655
S12 V0 2.518556 1_655
S13 V1 2.502864 1_555
S13 V0 2.518550 1_555
