# generated using pymatgen
data_TaInO4
_symmetry_space_group_name_H-M   'P 1'
_cell_length_a   4.84467191
_cell_length_b   5.17807931
_cell_length_c   5.81351481
_cell_angle_alpha   90.00000000
_cell_angle_beta   90.00000000
_cell_angle_gamma   91.28113106
_symmetry_Int_Tables_number   1
_chemical_formula_structural   TaInO4
_chemical_formula_sum   'Ta2 In2 O8'
_cell_volume   145.80193136
_cell_formula_units_Z   2
loop_
 _symmetry_equiv_pos_site_id
 _symmetry_equiv_pos_as_xyz
  1  'x, y, z'
loop_
 _atom_site_type_symbol
 _atom_site_label
 _atom_site_symmetry_multiplicity
 _atom_site_fract_x
 _atom_site_fract_y
 _atom_site_fract_z
 _atom_site_occupancy
  Ta  Ta0  1  0.00000000  0.25000000  0.82727309  1
  Ta  Ta1  1  0.00000000  0.75000000  0.17272691  1
  In  In0  1  0.50000000  0.25000000  0.32339812  1
  In  In1  1  0.50000000  0.75000000  0.67660188  1
  O  O0  1  0.25994386  0.40029375  0.62051500  1
  O  O1  1  0.74005614  0.09970625  0.62051500  1
  O  O2  1  0.74005614  0.59970625  0.37948500  1
  O  O3  1  0.25994386  0.90029375  0.37948500  1
  O  O4  1  0.21438005  0.43610097  0.10305048  1
  O  O5  1  0.78561995  0.06389903  0.10305048  1
  O  O6  1  0.78561995  0.56389903  0.89694952  1
  O  O7  1  0.21438005  0.93610097  0.89694952  1
loop_
_geom_bond_atom_site_label_1
_geom_bond_atom_site_label_2
_geom_bond_distance
_geom_bond_site_symmetry_2
In0 O4 2.131644 1_555
In0 O5 2.131644 1_555
In0 O3 2.154929 1_545
In0 O2 2.154929 1_555
In0 O0 2.232087 1_555
In0 O1 2.232087 1_555
In1 O7 2.131644 1_555
In1 O6 2.131644 1_555
In1 O0 2.154929 1_555
In1 O1 2.154929 1_565
In1 O3 2.232087 1_555
In1 O2 2.232087 1_555
O0 Ta0 1.895402 1_555
O1 Ta0 1.895402 1_655
O2 Ta1 1.895402 1_655
O3 Ta1 1.895402 1_555
O4 Ta1 1.990016 1_555
O4 Ta0 2.129065 1_554
O4 O6 2.499952 1_454
O5 Ta1 1.990016 1_645
O5 Ta0 2.129065 1_654
O5 O7 2.499952 1_644
O6 Ta0 1.990016 1_655
O6 Ta1 2.129065 1_656
O7 Ta0 1.990016 1_565
O7 Ta1 2.129065 1_556
