# generated using pymatgen
data_Mn6O7F5
_symmetry_space_group_name_H-M   'P 1'
_cell_length_a   4.61286098
_cell_length_b   5.63595979
_cell_length_c   15.37854673
_cell_angle_alpha   89.84544759
_cell_angle_beta   90.39676350
_cell_angle_gamma   90.18876154
_symmetry_Int_Tables_number   1
_chemical_formula_structural   Mn6O7F5
_chemical_formula_sum   'Mn12 O14 F10'
_cell_volume   399.79671856
_cell_formula_units_Z   2
loop_
 _symmetry_equiv_pos_site_id
 _symmetry_equiv_pos_as_xyz
  1  'x, y, z'
loop_
 _atom_site_type_symbol
 _atom_site_label
 _atom_site_symmetry_multiplicity
 _atom_site_fract_x
 _atom_site_fract_y
 _atom_site_fract_z
 _atom_site_occupancy
  Mn  Mn0  1  0.03532600  0.17585600  0.40602400  1
  Mn  Mn1  1  0.02208000  0.83442900  0.24521000  1
  Mn  Mn2  1  0.99041500  0.15323300  0.07905400  1
  Mn  Mn3  1  0.01007300  0.16931800  0.74675500  1
  Mn  Mn4  1  0.98202400  0.85115200  0.58068100  1
  Mn  Mn5  1  0.05105300  0.85380200  0.91325300  1
  Mn  Mn6  1  0.49575800  0.34742300  0.58630000  1
  Mn  Mn7  1  0.48762200  0.35401000  0.92560900  1
  Mn  Mn8  1  0.49769600  0.36596900  0.25573600  1
  Mn  Mn9  1  0.49772700  0.65339100  0.08561400  1
  Mn  Mn10  1  0.51703400  0.62287700  0.41958700  1
  Mn  Mn11  1  0.48562100  0.63840900  0.75601100  1
  O  O0  1  0.23715600  0.11398400  0.29916700  1
  O  O1  1  0.20291200  0.11030800  0.63548800  1
  O  O2  1  0.23538800  0.11561400  0.97164900  1
  O  O3  1  0.20832000  0.88854000  0.13367200  1
  O  O4  1  0.22788900  0.89103300  0.80449700  1
  O  O5  1  0.28634500  0.59944100  0.31430500  1
  O  O6  1  0.29048900  0.38589100  0.47589500  1
  O  O7  1  0.28227600  0.39597500  0.81684500  1
  O  O8  1  0.28715500  0.61493400  0.97653000  1
  O  O9  1  0.71644800  0.37875800  0.03094900  1
  O  O10  1  0.71526700  0.61687500  0.19495400  1
  O  O11  1  0.72925500  0.38404000  0.35811200  1
  O  O12  1  0.72839700  0.61208100  0.52886500  1
  O  O13  1  0.71298400  0.38570400  0.69544500  1
  F  F0  1  0.25663700  0.87890700  0.46724700  1
  F  F1  1  0.24370000  0.38475500  0.15029500  1
  F  F2  1  0.22785400  0.61979100  0.64098500  1
  F  F3  1  0.76350800  0.61643400  0.86821000  1
  F  F4  1  0.74098400  0.12679100  0.19227600  1
  F  F5  1  0.77766700  0.10572500  0.51539400  1
  F  F6  1  0.78249100  0.86807800  0.36024400  1
  F  F7  1  0.77731700  0.87983500  0.01366200  1
  F  F8  1  0.76777900  0.12870800  0.85964000  1
  F  F9  1  0.72935500  0.87792800  0.69584100  1
loop_
_geom_bond_atom_site_label_1
_geom_bond_atom_site_label_2
_geom_bond_distance
_geom_bond_site_symmetry_2
Mn0 O0 1.927500 1_555
Mn0 O11 1.976050 1_455
Mn0 O6 1.980255 1_555
Mn1 O3 1.946573 1_555
Mn1 O10 2.020462 1_455
Mn1 O0 2.034840 1_565
Mn1 O5 2.086667 1_555
Mn2 O9 1.937145 1_555
Mn2 O3 1.983118 1_645
Mn2 O2 2.019765 1_654
Mn3 O1 1.963654 1_555
Mn3 O13 1.994704 1_455
Mn3 O4 2.061178 1_545
Mn3 O7 2.085280 1_555
Mn4 O12 1.949799 1_555
Mn4 O1 1.966439 1_665
Mn5 O4 1.876856 1_555
Mn5 O2 1.922266 1_565
Mn5 O8 1.983279 1_555
Mn6 O6 1.950241 1_555
Mn6 O13 1.960915 1_555
Mn6 O12 2.037675 1_555
Mn6 O1 2.044434 1_555
Mn7 O8 1.912091 1_555
Mn7 O2 1.912144 1_555
Mn7 O7 1.930877 1_555
Mn7 O9 1.932489 1_556
Mn8 O5 1.876221 1_555
Mn8 O11 1.899182 1_555
Mn8 O10 1.969055 1_555
Mn8 O0 1.975389 1_555
Mn9 O8 1.944909 1_554
Mn9 O10 1.962872 1_555
Mn9 O3 2.028651 1_555
Mn9 O9 2.037024 1_555
Mn10 O6 1.903405 1_555
Mn10 O11 1.921560 1_555
Mn10 O5 1.935880 1_555
Mn10 O12 1.937951 1_555
Mn11 O7 1.902315 1_555
Mn11 O4 2.006422 1_555
Mn11 O13 2.006609 1_555
O10 O5 2.709473 1_555
O13 O7 2.736594 1_555
F0 Mn10 2.022751 1_555
F0 Mn4 2.167963 1_455
F0 Mn0 2.172328 1_565
F0 F5 2.666515 1_465
F0 F6 2.728569 1_455
F0 O6 2.786282 1_555
F0 O12 2.807208 1_555
F0 F5 2.814093 1_565
F0 O5 2.838571 1_555
F1 Mn8 1.996724 1_555
F1 Mn2 2.061057 1_455
F1 Mn9 2.156644 1_555
F2 Mn4 1.958284 1_455
F2 Mn11 2.127206 1_555
F2 Mn6 2.150512 1_555
F3 Mn5 2.002364 1_655
F3 Mn7 2.140640 1_555
F3 Mn11 2.145916 1_555
F3 F7 2.688238 1_556
F3 F8 2.752459 1_555
F3 O8 2.766554 1_555
F3 O7 2.818743 1_655
F3 F8 2.889816 1_565
F4 Mn8 2.015244 1_555
F4 Mn2 2.098339 1_555
F4 Mn1 2.247502 1_645
F4 O10 2.765460 1_555
F4 O0 2.809662 1_655
F5 Mn4 1.985764 1_545
F5 Mn0 2.102102 1_655
F5 Mn6 2.185180 1_555
F5 O1 2.684997 1_655
F5 F6 2.739614 1_545
F6 Mn10 2.059025 1_555
F6 Mn1 2.101723 1_655
F6 Mn0 2.201523 1_665
F6 O11 2.738507 1_555
F7 Mn5 2.007432 1_654
F7 Mn2 2.082429 1_565
F7 Mn9 2.125510 1_555
F7 O3 2.703769 1_655
F7 F8 2.749691 1_564
F7 O8 2.762583 1_554
F8 Mn3 2.082866 1_655
F8 Mn7 2.085096 1_555
F8 Mn5 2.186161 1_645
F8 O2 2.752125 1_655
F8 O7 2.777440 1_555
F8 F9 2.895818 1_545
F9 Mn11 1.985008 1_555
F9 Mn4 2.132799 1_555
F9 Mn3 2.228401 1_665
F9 O13 2.774956 1_555
