# generated using pymatgen
data_CoTe2O5
_symmetry_space_group_name_H-M   'P 1'
_cell_length_a   8.72700200
_cell_length_b   8.72700200
_cell_length_c   12.98589100
_cell_angle_alpha   90.00000000
_cell_angle_beta   90.00000000
_cell_angle_gamma   90.00000000
_symmetry_Int_Tables_number   1
_chemical_formula_structural   CoTe2O5
_chemical_formula_sum   'Co8 Te16 O40'
_cell_volume   989.01278141
_cell_formula_units_Z   8
loop_
 _symmetry_equiv_pos_site_id
 _symmetry_equiv_pos_as_xyz
  1  'x, y, z'
loop_
 _atom_site_type_symbol
 _atom_site_label
 _atom_site_symmetry_multiplicity
 _atom_site_fract_x
 _atom_site_fract_y
 _atom_site_fract_z
 _atom_site_occupancy
  Co  Co0  1  0.50000000  0.00000000  0.00000000  1
  Co  Co1  1  0.50000000  0.00000000  0.75000000  1
  Co  Co2  1  0.50000000  0.00000000  0.25000000  1
  Co  Co3  1  0.50000000  0.00000000  0.50000000  1
  Co  Co4  1  0.00000000  0.50000000  0.75000000  1
  Co  Co5  1  0.00000000  0.50000000  0.00000000  1
  Co  Co6  1  0.00000000  0.50000000  0.25000000  1
  Co  Co7  1  0.00000000  0.50000000  0.50000000  1
  Te  Te0  1  0.28943600  0.31765700  0.13302700  1
  Te  Te1  1  0.28943600  0.68234300  0.36697300  1
  Te  Te2  1  0.31765700  0.71056400  0.86697300  1
  Te  Te3  1  0.31765700  0.28943600  0.63302700  1
  Te  Te4  1  0.68234300  0.28943600  0.86697300  1
  Te  Te5  1  0.68234300  0.71056400  0.63302700  1
  Te  Te6  1  0.71056400  0.31765700  0.36697300  1
  Te  Te7  1  0.71056400  0.68234300  0.13302700  1
  Te  Te8  1  0.78943600  0.18234300  0.13302700  1
  Te  Te9  1  0.78943600  0.81765700  0.36697300  1
  Te  Te10  1  0.81765700  0.78943600  0.86697300  1
  Te  Te11  1  0.81765700  0.21056400  0.63302700  1
  Te  Te12  1  0.18234300  0.78943600  0.63302700  1
  Te  Te13  1  0.18234300  0.21056400  0.86697300  1
  Te  Te14  1  0.21056400  0.18234300  0.36697300  1
  Te  Te15  1  0.21056400  0.81765700  0.13302700  1
  O  O0  1  0.27370100  0.87634000  0.29688000  1
  O  O1  1  0.27370100  0.12366000  0.20312000  1
  O  O2  1  0.30503300  0.19496700  0.00000000  1
  O  O3  1  0.30503300  0.80503300  0.50000000  1
  O  O4  1  0.35585300  0.92471300  0.88582400  1
  O  O5  1  0.35585300  0.07528700  0.61417600  1
  O  O6  1  0.37634000  0.22629900  0.79688000  1
  O  O7  1  0.37634000  0.77370100  0.70312000  1
  O  O8  1  0.42471300  0.85585300  0.11417600  1
  O  O9  1  0.42471300  0.14414700  0.38582400  1
  O  O10  1  0.57528700  0.85585300  0.38582400  1
  O  O11  1  0.57528700  0.14414700  0.11417600  1
  O  O12  1  0.62366000  0.77370100  0.79688000  1
  O  O13  1  0.62366000  0.22629900  0.70312000  1
  O  O14  1  0.64414700  0.07528700  0.88582400  1
  O  O15  1  0.64414700  0.92471300  0.61417600  1
  O  O16  1  0.69496700  0.80503300  0.00000000  1
  O  O17  1  0.69496700  0.19496700  0.50000000  1
  O  O18  1  0.72629900  0.87634000  0.20312000  1
  O  O19  1  0.72629900  0.12366000  0.29688000  1
  O  O20  1  0.77370100  0.37634000  0.20312000  1
  O  O21  1  0.77370100  0.62366000  0.29688000  1
  O  O22  1  0.80503300  0.30503300  0.00000000  1
  O  O23  1  0.80503300  0.69496700  0.50000000  1
  O  O24  1  0.85585300  0.42471300  0.61417600  1
  O  O25  1  0.85585300  0.57528700  0.88582400  1
  O  O26  1  0.87634000  0.27370100  0.79688000  1
  O  O27  1  0.87634000  0.72629900  0.70312000  1
  O  O28  1  0.92471300  0.35585300  0.38582400  1
  O  O29  1  0.92471300  0.64414700  0.11417600  1
  O  O30  1  0.07528700  0.35585300  0.11417600  1
  O  O31  1  0.07528700  0.64414700  0.38582400  1
  O  O32  1  0.12366000  0.27370100  0.70312000  1
  O  O33  1  0.12366000  0.72629900  0.79688000  1
  O  O34  1  0.14414700  0.42471300  0.88582400  1
  O  O35  1  0.14414700  0.57528700  0.61417600  1
  O  O36  1  0.19496700  0.30503300  0.50000000  1
  O  O37  1  0.19496700  0.69496700  0.00000000  1
  O  O38  1  0.22629900  0.37634000  0.29688000  1
  O  O39  1  0.22629900  0.62366000  0.20312000  1
loop_
_geom_bond_atom_site_label_1
_geom_bond_atom_site_label_2
_geom_bond_distance
_geom_bond_site_symmetry_2
Co0 O14 2.052440 1_554
Co0 O8 2.052440 1_545
Co0 O11 2.052440 1_555
Co0 O4 2.052440 1_544
Co0 O16 2.406252 1_545
Co0 O2 2.406252 1_555
Co1 O14 2.263880 1_555
Co1 O4 2.263880 1_545
Co1 O5 2.263880 1_555
Co1 O15 2.263880 1_545
Co1 O7 2.331420 1_545
Co1 O13 2.331420 1_555
Co1 O6 2.331420 1_555
Co1 O12 2.331420 1_545
Co2 O10 2.263880 1_545
Co2 O9 2.263880 1_555
Co2 O8 2.263880 1_545
Co2 O11 2.263880 1_555
Co2 O18 2.331420 1_545
Co2 O19 2.331420 1_555
Co2 O0 2.331420 1_545
Co2 O1 2.331420 1_555
Co3 O5 2.052440 1_555
Co3 O15 2.052440 1_545
Co3 O10 2.052440 1_545
Co3 O9 2.052440 1_555
Co3 O17 2.406252 1_555
Co3 O3 2.406252 1_545
Co4 O34 2.263880 1_555
Co4 O25 2.263880 1_455
Co4 O35 2.263880 1_555
Co4 O24 2.263880 1_455
Co4 O27 2.331420 1_455
Co4 O33 2.331420 1_555
Co4 O32 2.331420 1_555
Co4 O26 2.331420 1_455
Co5 O30 2.052440 1_555
Co5 O29 2.052440 1_455
Co5 O34 2.052440 1_554
Co5 O25 2.052440 1_454
Co5 O22 2.406252 1_455
Co5 O37 2.406252 1_555
Co6 O30 2.263880 1_555
Co6 O31 2.263880 1_555
Co6 O28 2.263880 1_455
Co6 O29 2.263880 1_455
Co6 O20 2.331420 1_455
Co6 O38 2.331420 1_555
Co6 O39 2.331420 1_555
Co6 O21 2.331420 1_455
Co7 O35 2.052440 1_555
Co7 O24 2.052440 1_455
Co7 O31 2.052440 1_555
Co7 O28 2.052440 1_455
Co7 O23 2.406252 1_455
Co7 O36 2.406252 1_555
O0 Te1 1.927083 1_555
O0 Te15 2.256836 1_555
O0 O1 2.478099 1_565
O0 O39 2.552687 1_555
O0 O3 2.723867 1_555
O1 Te0 1.927083 1_555
O1 Te14 2.256836 1_555
O1 O38 2.552687 1_555
O1 O2 2.723867 1_555
O2 Te0 2.036941 1_555
O2 Te13 2.036941 1_554
O2 O6 2.723867 1_554
O2 O4 2.820919 1_544
O2 O34 2.861764 1_554
O2 O30 2.861764 1_555
O3 Te12 2.036941 1_555
O3 Te1 2.036941 1_555
O3 O7 2.723867 1_555
O3 O5 2.820919 1_565
O3 O35 2.861764 1_555
O3 O31 2.861764 1_555
O4 Te2 1.914092 1_555
O5 Te3 1.914092 1_555
O6 Te13 1.927083 1_555
O6 Te3 2.256836 1_555
O7 Te12 1.927083 1_555
O7 Te2 2.256836 1_555
O8 Te15 1.914092 1_555
O9 Te14 1.914092 1_555
O10 Te9 1.914092 1_555
O10 O3 2.820919 1_555
O10 O23 2.861764 1_555
O11 Te8 1.914092 1_555
O11 O2 2.820919 1_555
O11 O22 2.861764 1_555
O12 Te10 1.927083 1_555
O12 Te5 2.256836 1_555
O12 O7 2.478099 1_555
O12 O27 2.552687 1_555
O12 O16 2.723867 1_556
O13 Te11 1.927083 1_555
O13 Te4 2.256836 1_555
O13 O6 2.478099 1_555
O13 O26 2.552687 1_555
O13 O17 2.723867 1_555
O14 Te4 1.914092 1_555
O14 O16 2.820919 1_546
O14 O22 2.861764 1_556
O15 Te5 1.914092 1_555
O15 O17 2.820919 1_565
O15 O23 2.861764 1_555
O16 Te10 2.036941 1_554
O16 Te7 2.036941 1_555
O16 O18 2.723867 1_555
O16 O8 2.820919 1_555
O16 O29 2.861764 1_555
O16 O25 2.861764 1_554
O17 Te6 2.036941 1_555
O17 Te11 2.036941 1_555
O17 O19 2.723867 1_555
O17 O9 2.820919 1_555
O17 O24 2.861764 1_555
O17 O28 2.861764 1_555
O18 Te7 1.927083 1_555
O18 Te9 2.256836 1_555
O18 O19 2.478099 1_565
O18 O21 2.552687 1_555
O19 Te6 1.927083 1_555
O19 Te8 2.256836 1_555
O19 O20 2.552687 1_555
O20 Te8 1.927083 1_555
O20 Te6 2.256836 1_555
O20 O21 2.478099 1_555
O20 O22 2.723867 1_555
O21 Te9 1.927083 1_555
O21 Te7 2.256836 1_555
O21 O23 2.723867 1_555
O22 Te8 2.036941 1_555
O22 Te4 2.036941 1_554
O22 O26 2.723867 1_554
O22 O30 2.820919 1_655
O22 O25 2.820919 1_554
O23 Te9 2.036941 1_555
O23 Te5 2.036941 1_555
O23 O27 2.723867 1_555
O23 O31 2.820919 1_655
O23 O24 2.820919 1_555
O24 Te11 1.914092 1_555
O25 Te10 1.914092 1_555
O26 Te4 1.927083 1_555
O26 Te11 2.256836 1_555
O26 O32 2.478099 1_655
O27 Te5 1.927083 1_555
O27 Te10 2.256836 1_555
O27 O33 2.478099 1_655
O28 Te6 1.914092 1_555
O28 O36 2.820919 1_655
O29 Te7 1.914092 1_555
O29 O37 2.820919 1_655
O30 Te0 1.914092 1_555
O31 Te1 1.914092 1_555
O32 Te3 1.927083 1_555
O32 Te13 2.256836 1_555
O32 O6 2.552687 1_555
O32 O36 2.723867 1_555
O33 Te2 1.927083 1_555
O33 Te12 2.256836 1_555
O33 O7 2.552687 1_555
O33 O37 2.723867 1_556
O34 Te13 1.914092 1_555
O34 O37 2.820919 1_556
O35 Te12 1.914092 1_555
O35 O36 2.820919 1_555
O36 Te3 2.036941 1_555
O36 Te14 2.036941 1_555
O36 O38 2.723867 1_555
O36 O9 2.861764 1_555
O36 O5 2.861764 1_555
O37 Te2 2.036941 1_554
O37 Te15 2.036941 1_555
O37 O39 2.723867 1_555
O37 O8 2.861764 1_555
O37 O4 2.861764 1_554
O38 Te14 1.927083 1_555
O38 Te0 2.256836 1_555
O38 O39 2.478099 1_555
O39 Te15 1.927083 1_555
O39 Te1 2.256836 1_555
