# generated using pymatgen
data_LiMn2(BO3)2
_symmetry_space_group_name_H-M   'P 1'
_cell_length_a   5.28010100
_cell_length_b   5.79102001
_cell_length_c   20.48656650
_cell_angle_alpha   86.74111740
_cell_angle_beta   82.77740991
_cell_angle_gamma   89.51671677
_symmetry_Int_Tables_number   1
_chemical_formula_structural   LiMn2(BO3)2
_chemical_formula_sum   'Li5 Mn10 B10 O30'
_cell_volume   620.44522446
_cell_formula_units_Z   5
loop_
 _symmetry_equiv_pos_site_id
 _symmetry_equiv_pos_as_xyz
  1  'x, y, z'
loop_
 _atom_site_type_symbol
 _atom_site_label
 _atom_site_symmetry_multiplicity
 _atom_site_fract_x
 _atom_site_fract_y
 _atom_site_fract_z
 _atom_site_occupancy
  Li  Li0  1  0.39182800  0.89021600  0.89470000  1
  Li  Li1  1  0.80868700  0.91403400  0.70897000  1
  Li  Li2  1  0.01378300  0.71653700  0.31080000  1
  Li  Li3  1  0.41381600  0.31689700  0.51055100  1
  Li  Li4  1  0.61302900  0.11625100  0.10857000  1
  Mn  Mn0  1  0.09685000  0.88732900  0.43345900  1
  Mn  Mn1  1  0.10742100  0.90885700  0.16998600  1
  Mn  Mn2  1  0.30053600  0.70765300  0.77157900  1
  Mn  Mn3  1  0.28904000  0.67536400  0.03316200  1
  Mn  Mn4  1  0.49565100  0.48512300  0.63401500  1
  Mn  Mn5  1  0.50936000  0.51538200  0.36948400  1
  Mn  Mn6  1  0.71753200  0.32631400  0.96650200  1
  Mn  Mn7  1  0.69754100  0.28545300  0.23312900  1
  Mn  Mn8  1  0.91009000  0.10543100  0.82915800  1
  Mn  Mn9  1  0.90951100  0.11550400  0.56968800  1
  B  B0  1  0.35405600  0.97922400  0.63664700  1
  B  B1  1  0.84683800  0.82667200  0.96040000  1
  B  B2  1  0.55374500  0.77947800  0.23652100  1
  B  B3  1  0.75707000  0.59172400  0.83447500  1
  B  B4  1  0.04277200  0.61539500  0.56347400  1
  B  B5  1  0.95377300  0.38130200  0.43659700  1
  B  B6  1  0.24287500  0.41055600  0.16312300  1
  B  B7  1  0.44681000  0.21342400  0.76533200  1
  B  B8  1  0.15753300  0.17783000  0.03840400  1
  B  B9  1  0.64274400  0.01559700  0.36327000  1
  O  O0  1  0.71593100  0.01022400  0.92846100  1
  O  O1  1  0.09172500  0.98687600  0.64330700  1
  O  O2  1  0.10232700  0.82205300  0.95601400  1
  O  O3  1  0.47430100  0.82177900  0.67797500  1
  O  O4  1  0.70272300  0.93068000  0.19352200  1
  O  O5  1  0.90861700  0.74380400  0.79145600  1
  O  O6  1  0.47796500  0.84115100  0.39376900  1
  O  O7  1  0.92675100  0.80951500  0.53439100  1
  O  O8  1  0.29188300  0.78308800  0.24339600  1
  O  O9  1  0.49571200  0.61565300  0.84347400  1
  O  O10  1  0.29775500  0.59042300  0.55720700  1
  O  O11  1  0.67860300  0.62334400  0.27748300  1
  O  O12  1  0.86738200  0.42419700  0.87258300  1
  O  O13  1  0.10415300  0.53240400  0.39387000  1
  O  O14  1  0.68694700  0.65096700  0.99135400  1
  O  O15  1  0.32078800  0.33482600  0.00251600  1
  O  O16  1  0.87779900  0.44122700  0.59414800  1
  O  O17  1  0.12348600  0.60317400  0.13450000  1
  O  O18  1  0.31994400  0.39894400  0.73605400  1
  O  O19  1  0.69187200  0.38692500  0.44318200  1
  O  O20  1  0.49805000  0.38768400  0.15651500  1
  O  O21  1  0.70124100  0.19378600  0.75439600  1
  O  O22  1  0.07703100  0.22434300  0.47763500  1
  O  O23  1  0.50423600  0.13131900  0.59398600  1
  O  O24  1  0.07859000  0.23570800  0.19334300  1
  O  O25  1  0.29652200  0.03877600  0.80335300  1
  O  O26  1  0.52625400  0.20952700  0.33422500  1
  O  O27  1  0.89558500  0.18793600  0.04074100  1
  O  O28  1  0.89769000  0.99106800  0.35694700  1
  O  O29  1  0.27155700  0.00718000  0.07736400  1
loop_
_geom_bond_atom_site_label_1
_geom_bond_atom_site_label_2
_geom_bond_distance
_geom_bond_site_symmetry_2
Li0 O2 1.881818 1_555
Li0 O9 1.990116 1_555
Li0 O0 2.064515 1_565
Li0 O25 2.131176 1_565
Li1 O1 1.913525 1_655
Li1 O21 1.958476 1_565
Li1 O5 2.032696 1_555
Li1 O3 2.035270 1_555
Li2 O8 1.910686 1_555
Li2 O28 1.950834 1_455
Li2 O13 2.061599 1_555
Li2 O11 2.061796 1_455
Li3 O19 1.913557 1_555
Li3 O10 1.951064 1_555
Li3 O22 2.064680 1_555
Li3 O23 2.071780 1_555
Li4 O27 1.937184 1_555
Li4 O20 1.952852 1_555
Li4 O4 2.096206 1_545
Li4 O29 2.100824 1_555
Mn0 O28 2.054372 1_455
Mn0 O6 2.094357 1_555
Mn0 O7 2.172377 1_455
Mn0 O22 2.193745 1_565
Mn0 O13 2.250374 1_555
Mn1 O17 1.948756 1_555
Mn1 O24 1.978543 1_565
Mn1 O8 1.993160 1_555
Mn1 O29 2.036617 1_565
Mn1 O4 2.134917 1_455
Mn2 O9 1.948961 1_555
Mn2 O18 1.965266 1_555
Mn2 O25 2.058857 1_565
Mn2 O5 2.069407 1_455
Mn2 O3 2.092753 1_555
Mn3 O2 2.101555 1_554
Mn3 O15 2.102387 1_555
Mn3 O29 2.166732 1_565
Mn3 O17 2.167975 1_555
Mn3 O14 2.173472 1_554
Mn4 O10 2.057494 1_555
Mn4 O16 2.098495 1_555
Mn4 O3 2.189755 1_555
Mn4 O18 2.209348 1_555
Mn4 O23 2.247799 1_555
Mn5 O26 1.947695 1_555
Mn5 O6 1.978564 1_555
Mn5 O19 1.996918 1_555
Mn5 O11 2.047876 1_555
Mn5 O13 2.137798 1_555
Mn6 O14 1.975601 1_555
Mn6 O27 2.011821 1_556
Mn6 O0 2.030321 1_555
Mn6 O12 2.037200 1_555
Mn6 O15 2.132822 1_556
Mn7 O20 2.055008 1_555
Mn7 O24 2.097607 1_655
Mn7 O26 2.175537 1_555
Mn7 O11 2.200108 1_555
Mn7 O4 2.250134 1_545
Mn8 O21 2.037098 1_555
Mn8 O25 2.080959 1_655
Mn8 O12 2.092650 1_555
Mn8 O0 2.202556 1_555
Mn8 O5 2.273314 1_545
Mn9 O7 1.948726 1_545
Mn9 O16 1.979441 1_555
Mn9 O1 1.995050 1_645
Mn9 O22 2.047169 1_655
Mn9 O23 2.137604 1_555
B0 O1 1.375248 1_555
B0 O23 1.385068 1_565
B0 O3 1.410286 1_555
B1 O2 1.340819 1_655
B1 O14 1.398828 1_555
B1 O0 1.434579 1_565
B2 O8 1.372187 1_555
B2 O4 1.382441 1_555
B2 O11 1.413915 1_555
B3 O9 1.375968 1_555
B3 O12 1.381537 1_555
B3 O5 1.392462 1_555
B4 O10 1.343644 1_555
B4 O16 1.405730 1_455
B4 O7 1.413507 1_455
B5 O19 1.372735 1_555
B5 O13 1.382834 1_655
B5 O22 1.413258 1_655
B6 O20 1.343274 1_555
B6 O24 1.403391 1_555
B6 O17 1.411451 1_555
B7 O21 1.338860 1_555
B7 O18 1.406534 1_555
B7 O25 1.424035 1_555
B8 O15 1.374063 1_555
B8 O27 1.378774 1_455
B8 O29 1.413243 1_555
B9 O28 1.343157 1_545
B9 O6 1.405098 1_545
B9 O26 1.413517 1_555
