# generated using pymatgen
data_LiCr(SiO3)2
_symmetry_space_group_name_H-M   'P 1'
_cell_length_a   5.21322700
_cell_length_b   8.79816131
_cell_length_c   18.33961303
_cell_angle_alpha   90.08654741
_cell_angle_beta   90.02743008
_cell_angle_gamma   90.01528424
_symmetry_Int_Tables_number   1
_chemical_formula_structural   LiCr(SiO3)2
_chemical_formula_sum   'Li8 Cr8 Si16 O48'
_cell_volume   841.17849873
_cell_formula_units_Z   8
loop_
 _symmetry_equiv_pos_site_id
 _symmetry_equiv_pos_as_xyz
  1  'x, y, z'
loop_
 _atom_site_type_symbol
 _atom_site_label
 _atom_site_symmetry_multiplicity
 _atom_site_fract_x
 _atom_site_fract_y
 _atom_site_fract_z
 _atom_site_occupancy
  Li  Li0  1  0.37407300  0.01431500  0.12437600  1
  Li  Li1  1  0.87448100  0.48624000  0.12324200  1
  Li  Li2  1  0.86789700  0.33942100  0.37448900  1
  Li  Li3  1  0.87485100  0.00844700  0.37647000  1
  Li  Li4  1  0.62882800  0.50487300  0.62276100  1
  Li  Li5  1  0.63177100  0.84173000  0.62279500  1
  Li  Li6  1  0.63152900  0.34236800  0.87694800  1
  Li  Li7  1  0.12942300  0.15912800  0.87711300  1
  Cr  Cr0  1  0.37842700  0.65375900  0.12533100  1
  Cr  Cr1  1  0.87642400  0.84735000  0.12513500  1
  Cr  Cr2  1  0.37464100  0.15267200  0.37479600  1
  Cr  Cr3  1  0.35643000  0.50920400  0.37612000  1
  Cr  Cr4  1  0.14721300  0.01315400  0.62319100  1
  Cr  Cr5  1  0.12524900  0.65232700  0.62268800  1
  Cr  Cr6  1  0.64285000  0.99546500  0.87653700  1
  Cr  Cr7  1  0.14372400  0.50373900  0.87612300  1
  Si  Si0  1  0.29163600  0.34098000  0.02675400  1
  Si  Si1  1  0.79127000  0.15897300  0.02671700  1
  Si  Si2  1  0.55050400  0.34239700  0.22587600  1
  Si  Si3  1  0.05736400  0.15667700  0.22708900  1
  Si  Si4  1  0.56473600  0.84234600  0.27466400  1
  Si  Si5  1  0.05946200  0.66021600  0.27295400  1
  Si  Si6  1  0.29683800  0.83800700  0.47185300  1
  Si  Si7  1  0.79726000  0.66019900  0.47319000  1
  Si  Si8  1  0.20210800  0.33717300  0.52738900  1
  Si  Si9  1  0.70209000  0.16003800  0.52611800  1
  Si  Si10  1  0.94037200  0.34616800  0.72771800  1
  Si  Si11  1  0.44545200  0.15642600  0.73002500  1
  Si  Si12  1  0.93735800  0.84128200  0.77097900  1
  Si  Si13  1  0.43216900  0.65663800  0.77011700  1
  Si  Si14  1  0.20078700  0.83525800  0.97300000  1
  Si  Si15  1  0.70094300  0.66421300  0.97295900  1
  O  O0  1  0.58738100  0.29437600  0.05170700  1
  O  O1  1  0.08605700  0.20650900  0.05177300  1
  O  O2  1  0.19863200  0.82778600  0.06309600  1
  O  O3  1  0.69944100  0.67153000  0.06315300  1
  O  O4  1  0.20836000  0.49488000  0.06911200  1
  O  O5  1  0.70597800  0.00524700  0.06865000  1
  O  O6  1  0.55119600  0.83133500  0.18457100  1
  O  O7  1  0.05354300  0.66934700  0.18360700  1
  O  O8  1  0.04753300  0.99015700  0.18952000  1
  O  O9  1  0.55020100  0.51066800  0.19099900  1
  O  O10  1  0.82778500  0.27214600  0.19951100  1
  O  O11  1  0.32907400  0.22752800  0.19402700  1
  O  O12  1  0.83862600  0.77332800  0.30467700  1
  O  O13  1  0.34544500  0.71885300  0.30622100  1
  O  O14  1  0.05751500  0.49457300  0.31031000  1
  O  O15  1  0.54608600  0.00920400  0.30826300  1
  O  O16  1  0.52513900  0.34376300  0.31693800  1
  O  O17  1  0.05953300  0.15762200  0.31555700  1
  O  O18  1  0.20260400  0.99117300  0.43312000  1
  O  O19  1  0.68377100  0.51445900  0.43067000  1
  O  O20  1  0.22612200  0.33749900  0.43659800  1
  O  O21  1  0.68628400  0.15562800  0.43804500  1
  O  O22  1  0.59849700  0.80137600  0.45075100  1
  O  O23  1  0.10783800  0.69082800  0.44393700  1
  O  O24  1  0.90050700  0.30168100  0.54896900  1
  O  O25  1  0.39065200  0.19027800  0.55591800  1
  O  O26  1  0.27318900  0.83905100  0.56256300  1
  O  O27  1  0.81239800  0.65546700  0.56126400  1
  O  O28  1  0.29917800  0.49043200  0.56580800  1
  O  O29  1  0.81757400  0.01544700  0.56874000  1
  O  O30  1  0.97459300  0.84240100  0.68185200  1
  O  O31  1  0.44197300  0.66100400  0.68279100  1
  O  O32  1  0.44586000  0.99495500  0.68703000  1
  O  O33  1  0.95511000  0.50954900  0.68860200  1
  O  O34  1  0.66396500  0.27460400  0.69953300  1
  O  O35  1  0.15780400  0.21754800  0.69697100  1
  O  O36  1  0.65128800  0.78020500  0.80137400  1
  O  O37  1  0.14903100  0.71818800  0.80517800  1
  O  O38  1  0.44496900  0.49529400  0.81132100  1
  O  O39  1  0.94150300  0.00494700  0.80984600  1
  O  O40  1  0.96422300  0.35356700  0.81611100  1
  O  O41  1  0.45859900  0.14551300  0.81788300  1
  O  O42  1  0.32231400  0.98166000  0.93533600  1
  O  O43  1  0.82308900  0.51785400  0.93534600  1
  O  O44  1  0.29026600  0.35025600  0.93766000  1
  O  O45  1  0.79089700  0.14895900  0.93750400  1
  O  O46  1  0.88960400  0.81246400  0.94597700  1
  O  O47  1  0.39060900  0.68767600  0.94609500  1
loop_
_geom_bond_atom_site_label_1
_geom_bond_atom_site_label_2
_geom_bond_distance
_geom_bond_site_symmetry_2
Li0 O5 2.011537 1_555
Li0 O8 2.091163 1_545
Li0 O6 2.160618 1_545
Li0 O2 2.187568 1_545
Li0 O11 2.280116 1_555
Li0 O1 2.625446 1_555
Li1 O4 2.005675 1_655
Li1 O9 2.109426 1_555
Li1 O7 2.164525 1_655
Li1 O3 2.170246 1_555
Li1 O10 2.360479 1_555
Li1 O0 2.607854 1_555
Li2 O14 2.056979 1_655
Li2 O16 2.075268 1_555
Li2 O19 2.086041 1_555
Li2 O17 2.172843 1_655
Li2 O20 2.187089 1_655
Li2 O21 2.208115 1_555
Li3 O17 1.975417 1_655
Li3 O21 1.978826 1_555
Li3 O18 2.005217 1_645
Li3 O15 2.121389 1_555
Li3 O12 2.457588 1_545
Li3 O22 2.694164 1_545
Li4 O27 1.987008 1_555
Li4 O31 2.011237 1_555
Li4 O28 2.014512 1_555
Li4 O33 2.085889 1_555
Li4 O34 2.475671 1_555
Li4 O24 2.651273 1_555
Li5 O32 2.035066 1_555
Li5 O29 2.064390 1_565
Li5 O30 2.089340 1_555
Li5 O26 2.170997 1_555
Li5 O31 2.173354 1_555
Li5 O27 2.200441 1_555
Li6 O38 2.051647 1_555
Li6 O40 2.065145 1_555
Li6 O44 2.100336 1_555
Li6 O43 2.126330 1_555
Li6 O45 2.196545 1_555
Li6 O41 2.231230 1_555
Li7 O41 2.034870 1_555
Li7 O39 2.077220 1_455
Li7 O45 2.085981 1_455
Li7 O42 2.143400 1_545
Li7 O44 2.180944 1_555
Li7 O40 2.219341 1_455
Cr0 O4 1.948631 1_555
Cr0 O9 1.959946 1_555
Cr0 O7 2.007752 1_555
Cr0 O3 2.031666 1_555
Cr0 O6 2.103730 1_555
Cr0 O2 2.128523 1_555
Cr1 O8 1.939729 1_655
Cr1 O5 1.948510 1_565
Cr1 O6 2.021091 1_555
Cr1 O2 2.036439 1_655
Cr1 O7 2.111896 1_655
Cr1 O3 2.128199 1_555
Cr2 O15 1.969261 1_555
Cr2 O17 1.969578 1_555
Cr2 O18 1.993056 1_545
Cr2 O21 1.995948 1_555
Cr2 O20 2.127064 1_555
Cr2 O16 2.138590 1_555
Cr3 O14 1.974641 1_555
Cr3 O19 1.978213 1_555
Cr3 O20 1.994767 1_555
Cr3 O16 2.016710 1_555
Cr3 O13 2.248556 1_555
Cr3 O23 2.403440 1_555
Cr4 O32 1.954305 1_545
Cr4 O29 1.987272 1_455
Cr4 O26 2.002518 1_545
Cr4 O30 2.056515 1_445
Cr4 O35 2.249510 1_555
Cr4 O25 2.359564 1_555
Cr5 O33 1.957301 1_455
Cr5 O27 1.981956 1_455
Cr5 O28 1.984011 1_555
Cr5 O31 1.986218 1_555
Cr5 O26 2.124898 1_555
Cr5 O30 2.141684 1_455
Cr6 O45 1.914070 1_565
Cr6 O41 1.956149 1_565
Cr6 O39 1.982182 1_565
Cr6 O42 1.992972 1_555
Cr6 O36 2.341182 1_555
Cr6 O46 2.423769 1_555
Cr7 O44 1.919664 1_555
Cr7 O40 1.956176 1_455
Cr7 O38 1.971254 1_555
Cr7 O43 1.997647 1_455
Cr7 O37 2.293668 1_555
Cr7 O47 2.431717 1_555
O0 Si0 1.659783 1_555
O0 Si1 1.660881 1_555
O1 Si1 1.657166 1_455
O1 Si0 1.661413 1_555
O2 Si14 1.653776 1_554
O3 Si15 1.655300 1_554
O4 Si0 1.619510 1_555
O5 Si1 1.619119 1_555
O6 Si4 1.656432 1_555
O7 Si5 1.640955 1_555
O8 Si3 1.618844 1_565
O9 Si2 1.613629 1_555
O10 Si2 1.644875 1_555
O10 Si3 1.649834 1_655
O11 Si2 1.640751 1_555
O11 Si3 1.662575 1_555
O12 Si5 1.629042 1_655
O12 Si4 1.646565 1_555
O13 Si4 1.680553 1_555
O13 Si5 1.690831 1_555
O14 Si5 1.611320 1_555
O15 Si4 1.594271 1_545
O16 Si2 1.675357 1_555
O17 Si3 1.622512 1_555
O18 Si6 1.601504 1_555
O19 Si7 1.611960 1_555
O20 Si8 1.669838 1_555
O21 Si9 1.617692 1_555
O22 Si6 1.651435 1_555
O22 Si7 1.669636 1_555
O23 Si6 1.704858 1_555
O23 Si7 1.727137 1_455
O24 Si8 1.651370 1_655
O24 Si9 1.672102 1_555
O25 Si8 1.706584 1_555
O25 Si9 1.733834 1_555
O26 Si6 1.668219 1_555
O27 Si7 1.617731 1_555
O28 Si8 1.602227 1_555
O29 Si9 1.610825 1_555
O30 Si12 1.646177 1_555
O31 Si13 1.602883 1_555
O32 Si11 1.623766 1_565
O33 Si10 1.609318 1_555
O34 Si11 1.641101 1_555
O34 Si10 1.654643 1_555
O35 Si10 1.697873 1_455
O35 Si11 1.704679 1_555
O36 Si13 1.676975 1_555
O36 Si12 1.680739 1_555
O37 Si12 1.669133 1_455
O37 Si13 1.698750 1_555
O38 Si13 1.610526 1_555
O39 Si12 1.605891 1_545
O40 Si10 1.626999 1_555
O41 Si11 1.615707 1_555
O42 Si14 1.593832 1_555
O43 Si15 1.592996 1_555
O44 Si0 1.636122 1_556
O45 Si1 1.638370 1_556
O46 Si15 1.707404 1_555
O46 Si14 1.707729 1_655
O47 Si15 1.703666 1_555
O47 Si14 1.705268 1_555
