# generated using pymatgen
data_Li4Co5O12
_symmetry_space_group_name_H-M   'P 1'
_cell_length_a   4.88300000
_cell_length_b   4.89705263
_cell_length_c   9.91153044
_cell_angle_alpha   94.92261170
_cell_angle_beta   94.61605246
_cell_angle_gamma   119.86343533
_symmetry_Int_Tables_number   1
_chemical_formula_structural   Li4Co5O12
_chemical_formula_sum   'Li4 Co5 O12'
_cell_volume   202.68566573
_cell_formula_units_Z   1
loop_
 _symmetry_equiv_pos_site_id
 _symmetry_equiv_pos_as_xyz
  1  'x, y, z'
loop_
 _atom_site_type_symbol
 _atom_site_label
 _atom_site_symmetry_multiplicity
 _atom_site_fract_x
 _atom_site_fract_y
 _atom_site_fract_z
 _atom_site_occupancy
  Li  Li0  1  0.16349500  0.34689400  0.00963700  1
  Li  Li1  1  0.00076000  0.50578500  0.49000000  1
  Li  Li2  1  0.65319100  0.83699300  0.48902300  1
  Li  Li3  1  0.25585900  0.76195300  0.24901000  1
  Co  Co0  1  0.92141100  0.07321900  0.25137400  1
  Co  Co1  1  0.74507200  0.25353000  0.75076700  1
  Co  Co2  1  0.41440000  0.58649400  0.75015600  1
  Co  Co3  1  0.58920700  0.41446600  0.24911900  1
  Co  Co4  1  0.08220000  0.92024500  0.75115600  1
  O  O0  1  0.03900900  0.21712700  0.64943900  1
  O  O1  1  0.29597700  0.42713100  0.35612700  1
  O  O2  1  0.65255500  0.13668500  0.35921800  1
  O  O3  1  0.57995300  0.69867300  0.14673400  1
  O  O4  1  0.78691800  0.96100300  0.84810300  1
  O  O5  1  0.85445900  0.34488100  0.15106700  1
  O  O6  1  0.10968600  0.61417700  0.84866600  1
  O  O7  1  0.21245100  0.07903800  0.14622100  1
  O  O8  1  0.44126100  0.28271800  0.84831100  1
  O  O9  1  0.37953100  0.88109300  0.64736800  1
  O  O10  1  0.72289200  0.55873200  0.64872400  1
  O  O11  1  0.92131200  0.77756300  0.35977800  1
loop_
_geom_bond_atom_site_label_1
_geom_bond_atom_site_label_2
_geom_bond_distance
_geom_bond_site_symmetry_2
Li0 O7 2.043356 1_555
Li0 O5 2.137823 1_455
Li0 O3 2.148079 1_555
Li0 O6 2.227372 1_554
Li0 O4 2.249906 1_444
Li0 O8 2.276509 1_554
Li1 O2 2.005212 1_455
Li1 O11 2.077531 1_455
Li1 O1 2.181776 1_555
Li1 O9 2.211330 1_555
Li1 O10 2.237651 1_455
Li1 O0 2.264765 1_555
Li2 O11 2.006294 1_555
Li2 O2 2.033981 1_565
Li2 O1 2.120378 1_555
Li2 O9 2.205043 1_555
Li2 O0 2.249431 1_665
Li2 O10 2.285501 1_555
Li3 O7 2.014576 1_565
Li3 O2 2.021970 1_565
Li3 O11 2.068440 1_455
Li3 O3 2.078652 1_555
Li3 O5 2.079039 1_455
Li3 O1 2.106927 1_555
Co0 O7 1.819308 1_655
Co0 O5 1.863577 1_555
Co0 O11 1.875382 1_545
Co0 O2 1.880913 1_555
Co0 O3 1.889314 1_545
Co0 O1 1.911988 1_655
Co1 O4 1.876583 1_545
Co1 O6 1.878019 1_655
Co1 O0 1.885895 1_655
Co1 O8 1.890571 1_555
Co1 O10 1.916106 1_555
Co1 O9 1.924965 1_545
Co2 O6 1.896734 1_555
Co2 O8 1.897049 1_555
Co2 O9 1.901880 1_555
Co2 O4 1.924243 1_555
Co2 O0 1.929249 1_555
Co2 O10 1.929402 1_555
Co3 O3 1.807354 1_555
Co3 O5 1.823053 1_555
Co3 O1 1.870962 1_555
Co3 O11 1.871328 1_555
Co3 O7 1.877200 1_555
Co3 O2 1.938148 1_555
Co4 O8 1.867538 1_565
Co4 O4 1.875848 1_455
Co4 O10 1.885402 1_455
Co4 O6 1.904374 1_555
Co4 O9 1.920067 1_555
Co4 O0 1.922820 1_565
