# generated using pymatgen
data_Li3Fe(PO4)2
_symmetry_space_group_name_H-M   'P 1'
_cell_length_a   8.75794847
_cell_length_b   8.75794847
_cell_length_c   6.88949600
_cell_angle_alpha   90.00000000
_cell_angle_beta   90.00000000
_cell_angle_gamma   120.00000358
_symmetry_Int_Tables_number   1
_chemical_formula_structural   Li3Fe(PO4)2
_chemical_formula_sum   'Li9 Fe3 P6 O24'
_cell_volume   457.63880180
_cell_formula_units_Z   3
loop_
 _symmetry_equiv_pos_site_id
 _symmetry_equiv_pos_as_xyz
  1  'x, y, z'
loop_
 _atom_site_type_symbol
 _atom_site_label
 _atom_site_symmetry_multiplicity
 _atom_site_fract_x
 _atom_site_fract_y
 _atom_site_fract_z
 _atom_site_occupancy
  Li  Li0  1  0.37079500  0.06996100  0.21412500  1
  Li  Li1  1  0.93003900  0.30083400  0.21412500  1
  Li  Li2  1  0.00000000  0.00000000  0.00000000  1
  Li  Li3  1  0.33333300  0.66666700  0.97972200  1
  Li  Li4  1  0.30083400  0.37079500  0.78587500  1
  Li  Li5  1  0.69916600  0.62920500  0.21412500  1
  Li  Li6  1  0.66666700  0.33333300  0.02027800  1
  Li  Li7  1  0.06996100  0.69916600  0.78587500  1
  Li  Li8  1  0.62920500  0.93003900  0.78587500  1
  Fe  Fe0  1  0.00000000  0.00000000  0.50000000  1
  Fe  Fe1  1  0.33333300  0.66666700  0.54625200  1
  Fe  Fe2  1  0.66666700  0.33333300  0.45374800  1
  P  P0  1  0.02821600  0.68191000  0.25585100  1
  P  P1  1  0.31809000  0.34630600  0.25585100  1
  P  P2  1  0.65369400  0.97178400  0.25585100  1
  P  P3  1  0.34630600  0.02821600  0.74414900  1
  P  P4  1  0.68191000  0.65369400  0.74414900  1
  P  P5  1  0.97178400  0.31809000  0.74414900  1
  O  O0  1  0.14552400  0.95052900  0.70161800  1
  O  O1  1  0.12574900  0.72713200  0.06288200  1
  O  O2  1  0.15762100  0.70579500  0.42169500  1
  O  O3  1  0.37722900  0.86650100  0.74619200  1
  O  O4  1  0.13349900  0.51072800  0.74619200  1
  O  O5  1  0.04947100  0.19499500  0.70161800  1
  O  O6  1  0.54817500  0.84237900  0.42169500  1
  O  O7  1  0.29420500  0.45182500  0.42169500  1
  O  O8  1  0.19499500  0.14552400  0.29838200  1
  O  O9  1  0.27286800  0.39861700  0.06288200  1
  O  O10  1  0.60138300  0.87425100  0.06288200  1
  O  O11  1  0.48927200  0.62277100  0.74619200  1
  O  O12  1  0.51072800  0.37722900  0.25380800  1
  O  O13  1  0.39861700  0.12574900  0.93711800  1
  O  O14  1  0.72713200  0.60138300  0.93711800  1
  O  O15  1  0.80500500  0.85447600  0.70161800  1
  O  O16  1  0.70579500  0.54817500  0.57830500  1
  O  O17  1  0.45182500  0.15762100  0.57830500  1
  O  O18  1  0.95052900  0.80500500  0.29838200  1
  O  O19  1  0.86650100  0.48927200  0.25380800  1
  O  O20  1  0.62277100  0.13349900  0.25380800  1
  O  O21  1  0.84237900  0.29420500  0.57830500  1
  O  O22  1  0.87425100  0.27286800  0.93711800  1
  O  O23  1  0.85447600  0.04947100  0.29838200  1
loop_
_geom_bond_atom_site_label_1
_geom_bond_atom_site_label_2
_geom_bond_distance
_geom_bond_site_symmetry_2
Li0 O13 1.954783 1_554
Li0 O20 2.006572 1_555
Li0 O8 2.040670 1_555
Li0 O12 2.349554 1_555
Li0 O17 2.615981 1_555
Li1 O22 1.954783 1_554
Li1 O19 2.006572 1_555
Li1 O23 2.040669 1_555
Li1 O20 2.349554 1_555
Li1 O21 2.615982 1_555
Li2 O8 2.567128 1_555
Li2 O15 2.567128 1_444
Li2 O5 2.567128 1_554
Li2 O18 2.567128 1_445
Li2 O23 2.567128 1_455
Li2 O0 2.567128 1_544
Li2 O14 3.121438 1_444
Li2 O9 3.121438 1_555
Li2 O13 3.121439 1_554
Li2 O10 3.121439 1_445
Li2 O1 3.121439 1_545
Li2 O22 3.121439 1_454
Li3 O1 2.208293 1_556
Li3 O10 2.208299 1_556
Li3 O9 2.208301 1_556
Li3 O3 2.264182 1_555
Li3 O4 2.264184 1_555
Li3 O11 2.264188 1_555
Li4 O9 1.954783 1_556
Li4 O11 2.006572 1_555
Li4 O5 2.040669 1_555
Li4 O4 2.349554 1_555
Li4 O7 2.615979 1_555
Li5 O14 1.954783 1_554
Li5 O12 2.006572 1_555
Li5 O18 2.040669 1_555
Li5 O19 2.349554 1_555
Li5 O16 2.615979 1_555
Li6 O22 2.208293 1_554
Li6 O13 2.208299 1_554
Li6 O14 2.208301 1_554
Li6 O20 2.264182 1_555
Li6 O19 2.264184 1_555
Li6 O12 2.264188 1_555
Li7 O1 1.954783 1_556
Li7 O4 2.006572 1_555
Li7 O0 2.040669 1_555
Li7 O3 2.349554 1_555
Li7 O2 2.615982 1_555
Li8 O10 1.954783 1_556
Li8 O3 2.006572 1_555
Li8 O15 2.040670 1_555
Li8 O11 2.349554 1_555
Li8 O6 2.615981 1_555
Fe0 O8 2.072122 1_555
Fe0 O15 2.072122 1_445
Fe0 O5 2.072122 1_555
Fe0 O18 2.072122 1_445
Fe0 O23 2.072122 1_455
Fe0 O0 2.072122 1_545
Fe1 O2 1.936314 1_555
Fe1 O6 1.936324 1_555
Fe1 O7 1.936329 1_555
Fe1 O3 2.106043 1_555
Fe1 O4 2.106045 1_555
Fe1 O11 2.106049 1_555
Fe2 O21 1.936314 1_555
Fe2 O17 1.936324 1_555
Fe2 O16 1.936329 1_555
Fe2 O20 2.106043 1_555
Fe2 O19 2.106045 1_555
Fe2 O12 2.106049 1_555
O0 P3 1.563482 1_565
O1 P0 1.521727 1_555
O2 P0 1.548095 1_555
O3 P3 1.569391 1_565
O4 P5 1.569391 1_455
O5 P5 1.563482 1_455
O6 P2 1.548093 1_555
O7 P1 1.548089 1_555
O8 P1 1.563482 1_555
O9 P1 1.521727 1_555
O10 P2 1.521727 1_555
O11 P4 1.569391 1_555
O12 P1 1.569391 1_555
O13 P3 1.521727 1_555
O14 P4 1.521727 1_555
O15 P4 1.563482 1_555
O16 P4 1.548089 1_555
O17 P3 1.548093 1_555
O18 P0 1.563482 1_655
O19 P0 1.569391 1_655
O20 P2 1.569391 1_545
O21 P5 1.548095 1_555
O22 P5 1.521727 1_555
O23 P2 1.563482 1_545
