# generated using pymatgen
data_La4Al6O15
_symmetry_space_group_name_H-M   'P 1'
_cell_length_a   6.95719864
_cell_length_b   6.95719864
_cell_length_c   21.19287120
_cell_angle_alpha   86.53646548
_cell_angle_beta   86.53646548
_cell_angle_gamma   42.51398942
_symmetry_Int_Tables_number   1
_chemical_formula_structural   La4Al6O15
_chemical_formula_sum   'La8 Al12 O30'
_cell_volume   691.74056705
_cell_formula_units_Z   2
loop_
 _symmetry_equiv_pos_site_id
 _symmetry_equiv_pos_as_xyz
  1  'x, y, z'
loop_
 _atom_site_type_symbol
 _atom_site_label
 _atom_site_symmetry_multiplicity
 _atom_site_fract_x
 _atom_site_fract_y
 _atom_site_fract_z
 _atom_site_occupancy
  La  La0  1  0.33053600  0.93951400  0.45014000  1
  La  La1  1  0.35191600  0.93602700  0.64714200  1
  La  La2  1  0.95288800  0.32394900  0.95091700  1
  La  La3  1  0.92977500  0.35596200  0.14784600  1
  La  La4  1  0.06397300  0.64808400  0.35285800  1
  La  La5  1  0.06048600  0.66946400  0.54986000  1
  La  La6  1  0.64403800  0.07022500  0.85215400  1
  La  La7  1  0.67605100  0.04711200  0.04908300  1
  Al  Al0  1  0.78744700  0.37751600  0.33550200  1
  Al  Al1  1  0.80953900  0.34700800  0.55467100  1
  Al  Al2  1  0.34431700  0.97875200  0.27450000  1
  Al  Al3  1  0.38150500  0.78764800  0.83505500  1
  Al  Al4  1  0.35298900  0.80532900  0.05498800  1
  Al  Al5  1  0.98113300  0.34423200  0.77543800  1
  Al  Al6  1  0.02124800  0.65568300  0.72550000  1
  Al  Al7  1  0.65299200  0.19046100  0.44532900  1
  Al  Al8  1  0.62248400  0.21255300  0.66449800  1
  Al  Al9  1  0.65576800  0.01886700  0.22456200  1
  Al  Al10  1  0.19467100  0.64701100  0.94501200  1
  Al  Al11  1  0.21235200  0.61849500  0.16494500  1
  O  O0  1  0.86909100  0.18903100  0.62971100  1
  O  O1  1  0.43074600  0.72028100  0.32798100  1
  O  O2  1  0.45966000  0.69022600  0.55215100  1
  O  O3  1  0.97414500  0.26139700  0.26182900  1
  O  O4  1  0.19461200  0.86624000  0.13013400  1
  O  O5  1  0.72263800  0.43011900  0.82850500  1
  O  O6  1  0.96874000  0.38751900  0.38829400  1
  O  O7  1  0.69363500  0.45178000  0.05243100  1
  O  O8  1  0.26382800  0.97460900  0.76147800  1
  O  O9  1  0.08524100  0.31217500  0.54200000  1
  O  O10  1  0.90633600  0.50597300  0.69743100  1
  O  O11  1  0.49402700  0.09366400  0.30256900  1
  O  O12  1  0.38745100  0.97529100  0.88670700  1
  O  O13  1  0.31841100  0.08089000  0.04051700  1
  O  O14  1  0.68782500  0.91475900  0.45800000  1
  O  O15  1  0.61248100  0.03126000  0.61170600  1
  O  O16  1  0.50789200  0.90417400  0.19677800  1
  O  O17  1  0.09582600  0.49210800  0.80322200  1
  O  O18  1  0.91911000  0.68158900  0.95948300  1
  O  O19  1  0.73860300  0.02585500  0.73817100  1
  O  O20  1  0.30977400  0.54034000  0.44784900  1
  O  O21  1  0.02470900  0.61254900  0.11329300  1
  O  O22  1  0.27971900  0.56925400  0.67201900  1
  O  O23  1  0.81096900  0.13090900  0.37028900  1
  O  O24  1  0.88104300  0.11895700  0.50000000  1
  O  O25  1  0.02539100  0.73617200  0.23852200  1
  O  O26  1  0.54822000  0.30636500  0.94756900  1
  O  O27  1  0.56988100  0.27736200  0.17149500  1
  O  O28  1  0.13376000  0.80538800  0.86986600  1
  O  O29  1  0.12632100  0.87367900  0.00000000  1
loop_
_geom_bond_atom_site_label_1
_geom_bond_atom_site_label_2
_geom_bond_distance
_geom_bond_site_symmetry_2
La0 O14 2.377331 1_555
La0 O2 2.444083 1_555
La0 O6 2.471353 1_465
La0 O24 2.541499 1_465
La0 O9 2.666439 1_565
La0 O1 2.864650 1_555
La0 O20 2.888634 1_555
La0 O6 3.308767 1_555
La1 O15 2.415630 1_565
La1 O0 2.423448 1_465
La1 O2 2.425458 1_555
La1 O8 2.444531 1_555
La1 O9 2.809435 1_565
La1 O10 2.839668 1_555
La1 O10 2.908407 1_465
La1 O22 2.955749 1_555
La2 O18 2.338075 1_555
La2 O12 2.442652 1_645
La2 O7 2.463762 1_556
La2 O29 2.556722 1_646
La2 O13 2.605402 1_656
La2 O5 2.892767 1_555
La2 O26 2.911900 1_555
La3 O21 2.383465 1_655
La3 O7 2.419992 1_555
La3 O4 2.441387 1_645
La3 O3 2.441733 1_555
La3 O16 2.800683 1_555
La3 O13 2.881233 1_655
La3 O16 2.933407 1_645
La3 O27 2.941644 1_555
La4 O6 2.415630 1_455
La4 O23 2.423448 1_465
La4 O20 2.425458 1_555
La4 O25 2.444531 1_555
La4 O14 2.809435 1_455
La4 O11 2.839668 1_555
La4 O11 2.908407 1_465
La4 O1 2.955749 1_555
La5 O9 2.377331 1_555
La5 O20 2.444083 1_555
La5 O15 2.471353 1_465
La5 O24 2.541499 1_465
La5 O14 2.666439 1_455
La5 O22 2.864650 1_555
La5 O2 2.888634 1_555
La5 O15 3.308767 1_555
La6 O12 2.383465 1_545
La6 O26 2.419992 1_555
La6 O28 2.441387 1_645
La6 O19 2.441733 1_555
La6 O17 2.800683 1_555
La6 O18 2.881233 1_545
La6 O17 2.933407 1_645
La6 O5 2.941644 1_555
La7 O13 2.338075 1_555
La7 O21 2.442652 1_645
La7 O26 2.463762 1_554
La7 O29 2.556722 1_645
La7 O18 2.605402 1_544
La7 O27 2.892767 1_555
La7 O7 2.911900 1_555
Al0 O23 1.720969 1_555
Al0 O3 1.771434 1_555
Al0 O1 1.774309 1_555
Al0 O6 1.776727 1_555
Al1 O2 1.749664 1_555
Al1 O9 1.752243 1_655
Al1 O24 1.759572 1_555
Al1 O0 1.762338 1_555
Al2 O1 1.766882 1_555
Al2 O3 1.767860 1_465
Al2 O16 1.812101 1_555
Al2 O11 1.854120 1_565
Al3 O28 1.753307 1_555
Al3 O8 1.769992 1_555
Al3 O5 1.771459 1_555
Al3 O12 1.778196 1_555
Al4 O7 1.754002 1_555
Al4 O13 1.756499 1_565
Al4 O4 1.763824 1_555
Al4 O29 1.766523 1_555
Al5 O5 1.763157 1_555
Al5 O8 1.770331 1_645
Al5 O10 1.812728 1_555
Al5 O17 1.839035 1_655
Al6 O22 1.766882 1_555
Al6 O19 1.767860 1_465
Al6 O17 1.812101 1_555
Al6 O10 1.854120 1_455
Al7 O20 1.749664 1_555
Al7 O14 1.752243 1_545
Al7 O24 1.759572 1_555
Al7 O23 1.762338 1_555
Al8 O0 1.720969 1_555
Al8 O19 1.771434 1_555
Al8 O22 1.774309 1_555
Al8 O15 1.776727 1_555
Al9 O27 1.763157 1_555
Al9 O25 1.770331 1_645
Al9 O11 1.812728 1_555
Al9 O16 1.839035 1_545
Al10 O26 1.754002 1_555
Al10 O18 1.756499 1_455
Al10 O28 1.763824 1_555
Al10 O29 1.766523 1_556
Al11 O4 1.753307 1_555
Al11 O25 1.769992 1_555
Al11 O27 1.771459 1_555
Al11 O21 1.778196 1_555
