# generated using pymatgen
data_Li6Mn3Cr2Fe3O16
_symmetry_space_group_name_H-M   'P 1'
_cell_length_a   5.77379802
_cell_length_b   5.80370312
_cell_length_c   9.50271575
_cell_angle_alpha   90.57778575
_cell_angle_beta   89.99995923
_cell_angle_gamma   60.28496216
_symmetry_Int_Tables_number   1
_chemical_formula_structural   Li6Mn3Cr2Fe3O16
_chemical_formula_sum   'Li6 Mn3 Cr2 Fe3 O16'
_cell_volume   276.53861431
_cell_formula_units_Z   1
loop_
 _symmetry_equiv_pos_site_id
 _symmetry_equiv_pos_as_xyz
  1  'x, y, z'
loop_
 _atom_site_type_symbol
 _atom_site_label
 _atom_site_symmetry_multiplicity
 _atom_site_fract_x
 _atom_site_fract_y
 _atom_site_fract_z
 _atom_site_occupancy
  Li  Li0  1  0.83336400  0.82215800  0.94467100  1
  Li  Li1  1  0.34507200  0.82363300  0.94432200  1
  Li  Li2  1  0.82618800  0.34686700  0.94731500  1
  Li  Li3  1  0.17162500  0.65603700  0.43995500  1
  Li  Li4  1  0.65679000  0.16854900  0.44448200  1
  Li  Li5  1  0.17511400  0.16804200  0.44409500  1
  Mn  Mn0  1  0.82857000  0.34276600  0.21602600  1
  Mn  Mn1  1  0.66290200  0.16986300  0.71455100  1
  Mn  Mn2  1  0.16761700  0.16931700  0.71443700  1
  Cr  Cr0  1  0.66329600  0.67245400  0.48864600  1
  Cr  Cr1  1  0.33292700  0.33427800  0.98939400  1
  Fe  Fe0  1  0.83108100  0.83383600  0.21262100  1
  Fe  Fe1  1  0.33529700  0.83408500  0.21230300  1
  Fe  Fe2  1  0.16588300  0.66576500  0.71100000  1
  O  O0  1  0.82934600  0.84687100  0.59402000  1
  O  O1  1  0.52093600  0.95924200  0.34949400  1
  O  O2  1  0.67287900  0.65514000  0.09622700  1
  O  O3  1  0.32287400  0.84781500  0.59292400  1
  O  O4  1  0.96857200  0.50647200  0.34716000  1
  O  O5  1  0.52461700  0.50658500  0.34661800  1
  O  O6  1  0.16376500  0.67232300  0.08867600  1
  O  O7  1  0.83878600  0.32308900  0.60002400  1
  O  O8  1  0.49031400  0.47237400  0.84475400  1
  O  O9  1  0.66891200  0.17525100  0.09292800  1
  O  O10  1  0.99288300  0.01447100  0.32348400  1
  O  O11  1  0.03813200  0.47074700  0.84566200  1
  O  O12  1  0.99153100  0.01706900  0.82302300  1
  O  O13  1  0.34191800  0.31564200  0.60030500  1
  O  O14  1  0.48470000  0.03032900  0.83866000  1
  O  O15  1  0.15671600  0.17419000  0.09294700  1
loop_
_geom_bond_atom_site_label_1
_geom_bond_atom_site_label_2
_geom_bond_distance
_geom_bond_site_symmetry_2
Li0 O11 2.003335 1_655
Li0 O14 2.034820 1_565
Li0 O12 2.121418 1_565
Li0 O6 2.155791 1_656
Li0 O2 2.188820 1_556
Li0 O9 2.258008 1_566
Li1 O8 2.005157 1_555
Li1 O14 2.019949 1_565
Li1 O12 2.123682 1_465
Li1 O6 2.164341 1_556
Li1 O2 2.194508 1_556
Li1 O15 2.250613 1_566
Li2 O11 1.957995 1_655
Li2 O8 1.963449 1_555
Li2 O12 2.028025 1_555
Li2 O2 2.089457 1_556
Li2 O9 2.157722 1_556
Li2 O15 2.166437 1_656
Li3 O4 1.974589 1_455
Li3 O5 1.981118 1_555
Li3 O10 2.129688 1_465
Li3 O3 2.246201 1_555
Li3 O0 2.252334 1_455
Li3 O13 2.307908 1_555
Li4 O1 1.956575 1_545
Li4 O5 1.961803 1_555
Li4 O10 2.036253 1_555
Li4 O13 2.159261 1_555
Li4 O0 2.169526 1_545
Li4 O7 2.236278 1_555
Li5 O1 1.960289 1_545
Li5 O4 1.960333 1_455
Li5 O10 2.030796 1_455
Li5 O13 2.158033 1_555
Li5 O3 2.159443 1_545
Li5 O7 2.239870 1_455
Mn0 O2 1.953652 1_555
Mn0 O10 1.954555 1_555
Mn0 O5 1.961100 1_555
Mn0 O4 1.961238 1_555
Mn0 O9 2.007202 1_555
Mn0 O15 2.013473 1_655
Mn1 O13 1.947617 1_555
Mn1 O12 1.949230 1_555
Mn1 O8 1.956539 1_555
Mn1 O0 1.979932 1_545
Mn1 O7 1.980236 1_555
Mn1 O14 1.987624 1_555
Mn2 O13 1.943221 1_555
Mn2 O12 1.946310 1_455
Mn2 O11 1.957998 1_555
Mn2 O3 1.979101 1_545
Mn2 O7 1.980662 1_455
Mn2 O14 1.987724 1_555
Cr0 O3 1.969148 1_555
Cr0 O1 1.970427 1_555
Cr0 O0 1.971858 1_555
Cr0 O5 2.031586 1_555
Cr0 O4 2.032980 1_555
Cr0 O7 2.065092 1_555
Cr1 O6 1.938076 1_556
Cr1 O15 1.955053 1_556
Cr1 O9 1.956113 1_556
Cr1 O11 2.018735 1_555
Cr1 O8 2.025227 1_555
Cr1 O14 2.085180 1_555
Fe0 O10 2.007565 1_565
Fe0 O2 2.012286 1_555
Fe0 O1 2.029025 1_555
Fe0 O6 2.036735 1_655
Fe0 O9 2.074317 1_565
Fe0 O4 2.104325 1_555
Fe1 O10 2.011635 1_465
Fe1 O2 2.016054 1_555
Fe1 O1 2.031947 1_555
Fe1 O6 2.035172 1_555
Fe1 O15 2.067172 1_565
Fe1 O5 2.103770 1_555
Fe2 O0 2.028533 1_455
Fe2 O3 2.042127 1_555
Fe2 O13 2.044017 1_555
Fe2 O12 2.055487 1_465
Fe2 O11 2.078332 1_555
Fe2 O8 2.080527 1_555
