# generated using pymatgen
data_LiV2OF5
_symmetry_space_group_name_H-M   'P 1'
_cell_length_a   5.52917091
_cell_length_b   7.66805554
_cell_length_c   8.89063525
_cell_angle_alpha   113.70574722
_cell_angle_beta   74.61049469
_cell_angle_gamma   85.33260908
_symmetry_Int_Tables_number   1
_chemical_formula_structural   LiV2OF5
_chemical_formula_sum   'Li3 V6 O3 F15'
_cell_volume   325.12534451
_cell_formula_units_Z   3
loop_
 _symmetry_equiv_pos_site_id
 _symmetry_equiv_pos_as_xyz
  1  'x, y, z'
loop_
 _atom_site_type_symbol
 _atom_site_label
 _atom_site_symmetry_multiplicity
 _atom_site_fract_x
 _atom_site_fract_y
 _atom_site_fract_z
 _atom_site_occupancy
  Li  Li0  1  0.42549100  0.72442200  0.00535100  1
  Li  Li1  1  0.90293500  0.46372500  0.34800100  1
  Li  Li2  1  0.43711000  0.20942000  0.98340700  1
  V  V0  1  0.00620600  0.00229200  0.00913200  1
  V  V1  1  0.35545500  0.66698600  0.34270400  1
  V  V2  1  0.32489600  0.14876600  0.32540200  1
  V  V3  1  0.66549200  0.82585100  0.65509600  1
  V  V4  1  0.64492700  0.33075800  0.67377100  1
  V  V5  1  0.01878600  0.49463000  0.98554500  1
  O  O0  1  0.22854100  0.02001700  0.13646100  1
  O  O1  1  0.57065900  0.68179400  0.46952100  1
  O  O2  1  0.37022800  0.38273800  0.87355900  1
  F  F0  1  0.10474400  0.65685100  0.20270400  1
  F  F1  1  0.63020300  0.62715400  0.11698200  1
  F  F2  1  0.28315700  0.95455700  0.41737700  1
  F  F3  1  0.95095700  0.30521900  0.09722700  1
  F  F4  1  0.36711800  0.36888900  0.24006000  1
  F  F5  1  0.03387400  0.68199700  0.52555500  1
  F  F6  1  0.69593900  0.03460600  0.20432600  1
  F  F7  1  0.42870200  0.32167400  0.52658000  1
  F  F8  1  0.30545200  0.98354400  0.80920800  1
  F  F9  1  0.94836800  0.30085800  0.46158000  1
  F  F10  1  0.61744200  0.63208100  0.76214300  1
  F  F11  1  0.74754500  0.00300800  0.87876200  1
  F  F12  1  0.71507500  0.04135700  0.58719700  1
  F  F13  1  0.05794000  0.71171600  0.91535400  1
  F  F14  1  0.90459200  0.33388300  0.79029100  1
loop_
_geom_bond_atom_site_label_1
_geom_bond_atom_site_label_2
_geom_bond_distance
_geom_bond_site_symmetry_2
Li0 O0 2.117159 1_565
Li0 O2 2.486520 1_554
Li1 O1 2.081492 1_555
Li2 O2 2.003037 1_555
Li2 O0 2.513890 1_556
O0 V2 1.818617 1_555
O0 V0 1.858313 1_555
O1 V3 1.818033 1_555
O1 V1 1.825126 1_555
O2 V5 1.875720 1_555
O2 V4 1.876466 1_555
F0 V5 2.037869 1_554
F0 V1 2.081452 1_555
F0 Li0 2.391908 1_555
F0 Li1 2.479706 1_455
F0 F5 2.715758 1_555
F0 F4 2.722993 1_555
F0 F2 2.773004 1_555
F1 Li0 1.968890 1_555
F1 V1 2.059585 1_555
F1 V5 2.090859 1_654
F1 F14 2.765673 1_554
F2 V2 1.968397 1_565
F2 V1 2.000404 1_555
F3 Li1 1.993229 1_555
F3 V5 2.070423 1_654
F3 V0 2.096925 1_655
F3 Li2 2.535018 1_654
F3 F8 2.820220 1_644
F4 Li2 2.015546 1_554
F4 V1 2.080727 1_555
F4 V2 2.116400 1_555
F4 Li1 2.421732 1_455
F4 F5 2.738565 1_555
F4 F7 2.813871 1_555
F5 V3 2.014871 1_455
F5 V1 2.024753 1_555
F5 Li1 2.120546 1_455
F6 V2 1.977840 1_555
F6 V0 2.005230 1_655
F6 F7 2.718450 1_555
F7 V4 1.979219 1_555
F7 V2 2.012047 1_555
F7 F9 2.754142 1_555
F8 V0 2.027939 1_566
F8 V3 2.032443 1_555
F8 Li2 2.138952 1_565
F8 O0 2.719161 1_566
F8 O1 2.846621 1_555
F9 Li1 1.933925 1_555
F9 V2 2.071693 1_655
F9 V4 2.082333 1_555
F10 Li0 1.931786 1_556
F10 V3 2.061832 1_555
F10 V4 2.097348 1_555
F11 Li2 1.960406 1_555
F11 V0 2.067018 1_656
F11 V3 2.100603 1_545
F11 F8 2.677170 1_545
F11 F6 2.739446 1_556
F11 F12 2.773001 1_555
F12 V3 1.989567 1_545
F12 V4 1.998879 1_555
F12 F14 2.742249 1_555
F12 F8 2.777841 1_545
F12 O1 2.795766 1_545
F13 V0 2.004387 1_566
F13 V5 2.007362 1_555
F13 Li0 2.369038 1_556
F14 V4 1.977402 1_555
F14 V5 1.979735 1_655
F14 F9 2.771810 1_555
