# generated using pymatgen
data_Mn4O7F
_symmetry_space_group_name_H-M   'P 1'
_cell_length_a   5.48504800
_cell_length_b   4.96120100
_cell_length_c   10.19702368
_cell_angle_alpha   61.05649440
_cell_angle_beta   90.00000000
_cell_angle_gamma   90.00000000
_symmetry_Int_Tables_number   1
_chemical_formula_structural   Mn4O7F
_chemical_formula_sum   'Mn8 O14 F2'
_cell_volume   242.82703225
_cell_formula_units_Z   2
loop_
 _symmetry_equiv_pos_site_id
 _symmetry_equiv_pos_as_xyz
  1  'x, y, z'
loop_
 _atom_site_type_symbol
 _atom_site_label
 _atom_site_symmetry_multiplicity
 _atom_site_fract_x
 _atom_site_fract_y
 _atom_site_fract_z
 _atom_site_occupancy
  Mn  Mn0  1  0.83420700  0.24908400  0.00520300  1
  Mn  Mn1  1  0.14381600  0.72779000  0.00461800  1
  Mn  Mn2  1  0.63209300  0.51812600  0.24188600  1
  Mn  Mn3  1  0.34906500  0.99840200  0.25454100  1
  Mn  Mn4  1  0.16579300  0.24908400  0.50520300  1
  Mn  Mn5  1  0.85618400  0.72779000  0.50461800  1
  Mn  Mn6  1  0.65093500  0.99840200  0.75454100  1
  Mn  Mn7  1  0.36790700  0.51812600  0.74188600  1
  O  O0  1  0.88043600  0.80774800  0.11421900  1
  O  O1  1  0.10751300  0.29486400  0.11861600  1
  O  O2  1  0.60124600  0.29065200  0.13534900  1
  O  O3  1  0.38117500  0.79274100  0.13199400  1
  O  O4  1  0.61304000  0.71316800  0.36578100  1
  O  O5  1  0.38780600  0.21927400  0.36464100  1
  O  O6  1  0.11223300  0.68764700  0.38559200  1
  O  O7  1  0.89248700  0.29486400  0.61861600  1
  O  O8  1  0.11956400  0.80774800  0.61421900  1
  O  O9  1  0.61882500  0.79274100  0.63199400  1
  O  O10  1  0.39875400  0.29065200  0.63534900  1
  O  O11  1  0.61219400  0.21927400  0.86464100  1
  O  O12  1  0.38696000  0.71316800  0.86578100  1
  O  O13  1  0.88776700  0.68764700  0.88559200  1
  F  F0  1  0.87869100  0.20050100  0.37755900  1
  F  F1  1  0.12130900  0.20050100  0.87755900  1
loop_
_geom_bond_atom_site_label_1
_geom_bond_atom_site_label_2
_geom_bond_distance
_geom_bond_site_symmetry_2
Mn0 O2 1.923904 1_555
Mn0 O0 1.933480 1_545
Mn0 O13 1.933766 1_554
Mn0 O11 1.940194 1_554
Mn0 O1 1.972445 1_655
Mn1 O1 1.894079 1_555
Mn1 O13 1.928515 1_454
Mn1 O12 1.971695 1_554
Mn1 O3 1.972555 1_555
Mn1 O0 1.980537 1_455
Mn2 O3 1.878401 1_555
Mn2 O2 1.915480 1_555
Mn2 O4 1.930431 1_555
Mn2 O5 1.940160 1_555
Mn2 O0 1.950478 1_555
Mn3 O5 1.922781 1_565
Mn3 O2 1.946050 1_565
Mn3 O4 1.957552 1_555
Mn3 O6 1.963687 1_555
Mn3 O1 1.966379 1_565
Mn3 O3 1.966647 1_555
Mn4 O10 1.923904 1_555
Mn4 O8 1.933480 1_545
Mn4 O6 1.933766 1_555
Mn4 O5 1.940194 1_555
Mn4 O7 1.972445 1_455
Mn5 O7 1.894079 1_555
Mn5 O6 1.928515 1_655
Mn5 O4 1.971695 1_555
Mn5 O9 1.972555 1_555
Mn5 O8 1.980537 1_655
Mn6 O11 1.922781 1_565
Mn6 O10 1.946050 1_565
Mn6 O12 1.957552 1_555
Mn6 O13 1.963687 1_555
Mn6 O7 1.966379 1_565
Mn6 O9 1.966647 1_555
Mn7 O9 1.878401 1_555
Mn7 O10 1.915480 1_555
Mn7 O12 1.930431 1_555
Mn7 O11 1.940160 1_555
Mn7 O8 1.950478 1_555
O0 O13 2.671363 1_554
O2 O5 2.482200 1_555
O2 O4 2.686602 1_545
O3 O5 2.681595 1_555
O6 O8 2.671363 1_555
O10 O11 2.482200 1_555
O10 O12 2.686602 1_545
O11 O9 2.681595 1_555
F0 Mn2 2.028936 1_555
F0 Mn5 2.062268 1_545
F0 Mn4 2.129736 1_655
F0 O5 2.695154 1_555
F0 O7 2.716759 1_555
F0 O2 2.747135 1_555
F0 O1 2.751356 1_655
F0 O6 2.771339 1_655
F0 O9 2.788441 1_545
F0 O5 2.795053 1_655
F0 O6 2.814204 1_645
F1 Mn7 2.028936 1_555
F1 Mn1 2.062268 1_546
F1 Mn0 2.129736 1_456
F1 O11 2.695154 1_555
F1 O1 2.716759 1_556
F1 O10 2.747135 1_555
F1 O7 2.751356 1_455
F1 O13 2.771339 1_455
F1 O3 2.788441 1_546
F1 O11 2.795053 1_455
F1 O13 2.814204 1_445
