# generated using pymatgen
data_Li4Mn2Cu3O10
_symmetry_space_group_name_H-M   'P 1'
_cell_length_a   5.04322000
_cell_length_b   5.38735036
_cell_length_c   7.60300376
_cell_angle_alpha   104.48031718
_cell_angle_beta   102.75673425
_cell_angle_gamma   105.40018923
_symmetry_Int_Tables_number   1
_chemical_formula_structural   Li4Mn2Cu3O10
_chemical_formula_sum   'Li4 Mn2 Cu3 O10'
_cell_volume   183.47272910
_cell_formula_units_Z   1
loop_
 _symmetry_equiv_pos_site_id
 _symmetry_equiv_pos_as_xyz
  1  'x, y, z'
loop_
 _atom_site_type_symbol
 _atom_site_label
 _atom_site_symmetry_multiplicity
 _atom_site_fract_x
 _atom_site_fract_y
 _atom_site_fract_z
 _atom_site_occupancy
  Li  Li0  1  0.22272200  0.89992800  0.39655500  1
  Li  Li1  1  0.39583200  0.29294800  0.77648000  1
  Li  Li2  1  0.60416800  0.70705200  0.22352000  1
  Li  Li3  1  0.77727800  0.10007200  0.60344500  1
  Mn  Mn0  1  0.09649200  0.67558300  0.69075200  1
  Mn  Mn1  1  0.90350800  0.32441700  0.30924800  1
  Cu  Cu0  1  0.00000000  0.50000000  0.00000000  1
  Cu  Cu1  1  0.69432000  0.88296800  0.89629600  1
  Cu  Cu2  1  0.30568000  0.11703200  0.10370400  1
  O  O0  1  0.05370800  0.02565100  0.84145300  1
  O  O1  1  0.34074400  0.66327100  0.92439600  1
  O  O2  1  0.11608500  0.33072600  0.54824200  1
  O  O3  1  0.44722100  0.90574400  0.67769600  1
  O  O4  1  0.21472900  0.52121300  0.23622200  1
  O  O5  1  0.78527100  0.47878700  0.76377800  1
  O  O6  1  0.55277900  0.09425600  0.32230400  1
  O  O7  1  0.88391500  0.66927400  0.45175800  1
  O  O8  1  0.65925600  0.33672900  0.07560400  1
  O  O9  1  0.94629200  0.97434900  0.15854700  1
loop_
_geom_bond_atom_site_label_1
_geom_bond_atom_site_label_2
_geom_bond_distance
_geom_bond_site_symmetry_2
Li0 O6 1.992600 1_565
Li0 O7 2.022293 1_455
Li0 O4 2.083541 1_555
Li0 O3 2.175023 1_555
Li0 O9 2.219102 1_455
Li0 O2 2.569811 1_565
Li1 O5 1.989181 1_555
Li1 O2 2.071482 1_555
Li1 O3 2.138284 1_545
Li1 O1 2.152326 1_555
Li1 O0 2.169619 1_555
Li1 O8 2.285553 1_556
Li2 O4 1.989181 1_555
Li2 O7 2.071482 1_555
Li2 O6 2.138284 1_565
Li2 O8 2.152326 1_555
Li2 O9 2.169619 1_555
Li2 O1 2.285553 1_554
Li3 O3 1.992600 1_545
Li3 O2 2.022293 1_655
Li3 O5 2.083541 1_555
Li3 O6 2.175023 1_555
Li3 O0 2.219102 1_655
Li3 O7 2.569811 1_545
Mn0 O7 1.881943 1_455
Mn0 O3 1.910559 1_555
Mn0 O5 1.921258 1_455
Mn0 O2 1.942550 1_555
Mn0 O1 1.952771 1_555
Mn0 O0 2.039804 1_565
Mn1 O2 1.881943 1_655
Mn1 O6 1.910559 1_555
Mn1 O4 1.921258 1_655
Mn1 O7 1.942550 1_555
Mn1 O8 1.952771 1_555
Mn1 O9 2.039804 1_545
Cu0 O5 1.839589 1_454
Cu0 O4 1.839589 1_555
Cu0 O8 1.985811 1_455
Cu0 O1 1.985811 1_554
Cu0 O9 2.651082 1_455
Cu0 O0 2.651082 1_554
Cu1 O3 1.897058 1_555
Cu1 O1 1.949344 1_555
Cu1 O0 1.950354 1_665
Cu1 O9 1.972478 1_556
Cu1 O5 2.367338 1_555
Cu1 O8 2.556394 1_566
Cu2 O6 1.897058 1_555
Cu2 O8 1.949344 1_555
Cu2 O9 1.950354 1_445
Cu2 O0 1.972478 1_554
Cu2 O4 2.367338 1_555
Cu2 O1 2.556394 1_544
