# generated using pymatgen
data_V2P2NO11
_symmetry_space_group_name_H-M   'P 1'
_cell_length_a   9.95162500
_cell_length_b   9.78077700
_cell_length_c   11.99934767
_cell_angle_alpha   52.64129866
_cell_angle_beta   90.00000000
_cell_angle_gamma   90.00000000
_symmetry_Int_Tables_number   1
_chemical_formula_structural   V2P2NO11
_chemical_formula_sum   'V8 P8 N4 O44'
_cell_volume   928.34923071
_cell_formula_units_Z   4
loop_
 _symmetry_equiv_pos_site_id
 _symmetry_equiv_pos_as_xyz
  1  'x, y, z'
loop_
 _atom_site_type_symbol
 _atom_site_label
 _atom_site_symmetry_multiplicity
 _atom_site_fract_x
 _atom_site_fract_y
 _atom_site_fract_z
 _atom_site_occupancy
  V  V0  1  0.69096300  0.20342600  0.10049800  1
  V  V1  1  0.80903700  0.20342600  0.60049800  1
  V  V2  1  0.30903700  0.79657400  0.89950200  1
  V  V3  1  0.19096300  0.79657400  0.39950200  1
  V  V4  1  0.44862000  0.48241600  0.39784900  1
  V  V5  1  0.05138000  0.48241600  0.89784900  1
  V  V6  1  0.55138000  0.51758400  0.60215100  1
  V  V7  1  0.94862000  0.51758400  0.10215100  1
  P  P0  1  0.51246600  0.84469000  0.30186900  1
  P  P1  1  0.98753400  0.84469000  0.80186900  1
  P  P2  1  0.48753400  0.15531000  0.69813100  1
  P  P3  1  0.01246600  0.15531000  0.19813100  1
  P  P4  1  0.68621000  0.33879500  0.29773600  1
  P  P5  1  0.81379000  0.33879500  0.79773600  1
  P  P6  1  0.31379000  0.66120500  0.70226400  1
  P  P7  1  0.18621000  0.66120500  0.20226400  1
  N  N0  1  0.67658600  0.87834200  0.00940300  1
  N  N1  1  0.82341400  0.87834200  0.50940300  1
  N  N2  1  0.32341400  0.12165800  0.99059700  1
  N  N3  1  0.17658600  0.12165800  0.49059700  1
  O  O0  1  0.88352700  0.45390200  0.00229600  1
  O  O1  1  0.61647300  0.45390200  0.50229600  1
  O  O2  1  0.11647300  0.54609800  0.99770400  1
  O  O3  1  0.38352700  0.54609800  0.49770400  1
  O  O4  1  0.87324700  0.09454100  0.19505000  1
  O  O5  1  0.62675300  0.09454100  0.69505000  1
  O  O6  1  0.12675300  0.90545900  0.80495000  1
  O  O7  1  0.37324700  0.90545900  0.30495000  1
  O  O8  1  0.60074600  0.99939500  0.18853700  1
  O  O9  1  0.89925400  0.99939500  0.68853700  1
  O  O10  1  0.39925400  0.00060500  0.81146300  1
  O  O11  1  0.10074600  0.00060500  0.31146300  1
  O  O12  1  0.76880800  0.21344500  0.95238800  1
  O  O13  1  0.73119200  0.21344500  0.45238800  1
  O  O14  1  0.23119200  0.78655500  0.04761200  1
  O  O15  1  0.26880800  0.78655500  0.54761200  1
  O  O16  1  0.67556900  0.22994800  0.24553600  1
  O  O17  1  0.82443100  0.22994800  0.74553600  1
  O  O18  1  0.32443100  0.77005200  0.75446400  1
  O  O19  1  0.17556900  0.77005200  0.25446400  1
  O  O20  1  0.58818900  0.35961700  0.99985400  1
  O  O21  1  0.91181100  0.35961700  0.49985400  1
  O  O22  1  0.41181100  0.64038300  0.00014600  1
  O  O23  1  0.08818900  0.64038300  0.50014600  1
  O  O24  1  0.08235100  0.24703500  0.05125600  1
  O  O25  1  0.41764900  0.24703500  0.55125600  1
  O  O26  1  0.91764900  0.75296500  0.94874400  1
  O  O27  1  0.58235100  0.75296500  0.44874400  1
  O  O28  1  0.01092000  0.28157400  0.23711500  1
  O  O29  1  0.48908000  0.28157400  0.73711500  1
  O  O30  1  0.98908000  0.71842600  0.76288500  1
  O  O31  1  0.51092000  0.71842600  0.26288500  1
  O  O32  1  0.29445700  0.51751800  0.29643500  1
  O  O33  1  0.20554300  0.51751800  0.79643500  1
  O  O34  1  0.70554300  0.48248200  0.70356500  1
  O  O35  1  0.79445700  0.48248200  0.20356500  1
  O  O36  1  0.05593400  0.57395600  0.20773300  1
  O  O37  1  0.44406600  0.57395600  0.70773300  1
  O  O38  1  0.94406600  0.42604400  0.79226700  1
  O  O39  1  0.55593400  0.42604400  0.29226700  1
  O  O40  1  0.64514700  0.72229500  0.81370200  1
  O  O41  1  0.85485300  0.72229500  0.31370200  1
  O  O42  1  0.35485300  0.27770500  0.18629800  1
  O  O43  1  0.14514700  0.27770500  0.68629800  1
loop_
_geom_bond_atom_site_label_1
_geom_bond_atom_site_label_2
_geom_bond_distance
_geom_bond_site_symmetry_2
N0 O31 2.939775 1_555
N0 O26 2.978565 1_554
N0 O5 3.043938 1_564
N0 O12 3.054748 1_564
N0 O8 3.111330 1_555
N0 O17 3.286616 1_564
N0 O35 3.293552 1_555
N0 O10 3.352827 1_564
N0 O41 3.470730 1_555
N0 O40 3.505920 1_554
N0 O22 3.561728 1_555
N1 O30 2.939775 1_555
N1 O27 2.978565 1_555
N1 O4 3.043938 1_565
N1 O13 3.054748 1_565
N1 O9 3.111330 1_555
N1 O16 3.286616 1_565
N1 O34 3.293552 1_555
N1 O11 3.352827 1_665
N1 O40 3.470730 1_555
N1 O41 3.505920 1_555
N1 O23 3.561728 1_655
N2 O29 2.939775 1_555
N2 O24 2.978565 1_556
N2 O7 3.043938 1_546
N2 O14 3.054748 1_546
N2 O10 3.111330 1_555
N2 O19 3.286616 1_546
N2 O33 3.293552 1_555
N2 O8 3.352827 1_546
N2 O43 3.470730 1_555
N2 O42 3.505920 1_556
N2 O20 3.561728 1_555
N3 O28 2.939775 1_555
N3 O25 2.978565 1_555
N3 O6 3.043938 1_545
N3 O15 3.054748 1_545
N3 O11 3.111330 1_555
N3 O18 3.286616 1_545
N3 O32 3.293552 1_555
N3 O9 3.352827 1_445
N3 O42 3.470730 1_555
N3 O43 3.505920 1_555
N3 O21 3.561728 1_455
O0 V7 1.774533 1_555
O0 V5 2.003648 1_654
O0 O40 3.229615 1_554
O1 V6 1.774533 1_555
O1 V4 2.003648 1_555
O1 O41 3.229615 1_555
O2 V5 1.774533 1_555
O2 V7 2.003648 1_456
O2 O42 3.229615 1_556
O3 V4 1.774533 1_555
O3 V6 2.003648 1_555
O3 O43 3.229615 1_555
O4 P3 1.516837 1_655
O4 V0 2.060511 1_555
O4 O41 3.004242 1_545
O5 P2 1.516837 1_555
O5 V1 2.060511 1_555
O6 P1 1.516837 1_455
O6 V2 2.060511 1_555
O7 P0 1.516837 1_555
O7 V3 2.060511 1_555
O8 P0 1.553537 1_555
O8 V0 1.829190 1_565
O9 P1 1.553537 1_555
O9 V1 1.829190 1_565
O10 P2 1.553537 1_555
O10 V2 1.829190 1_545
O10 O43 3.325037 1_555
O11 P3 1.553537 1_555
O11 V3 1.829190 1_545
O11 O42 3.325037 1_555
O12 P5 1.544694 1_555
O12 V0 1.885976 1_556
O13 P4 1.544694 1_555
O13 V1 1.885976 1_555
O14 P7 1.544694 1_555
O14 V2 1.885976 1_554
O15 P6 1.544694 1_555
O15 V3 1.885976 1_555
O16 P4 1.531735 1_555
O16 V0 1.915075 1_555
O16 O42 3.241466 1_555
O17 P5 1.531735 1_555
O17 V1 1.915075 1_555
O17 O43 3.241466 1_655
O18 P6 1.531735 1_555
O18 V2 1.915075 1_555
O18 O40 3.241466 1_555
O19 P7 1.531735 1_555
O19 V3 1.915075 1_555
O19 O41 3.241466 1_455
O20 V0 1.612230 1_556
O20 O40 2.877115 1_555
O20 O42 2.977205 1_556
O21 V1 1.612230 1_555
O21 O41 2.877115 1_555
O21 O43 2.977205 1_655
O22 V2 1.612230 1_554
O22 O42 2.877115 1_555
O22 O40 2.977205 1_554
O23 V3 1.612230 1_555
O23 O43 2.877115 1_555
O23 O41 2.977205 1_455
O24 P3 1.573450 1_555
O24 V5 1.908020 1_554
O24 O42 3.264922 1_555
O25 P2 1.573450 1_555
O25 V4 1.908020 1_555
O25 O43 3.264922 1_555
O26 P1 1.573450 1_555
O26 V7 1.908020 1_556
O26 O40 3.264922 1_555
O27 P0 1.573450 1_555
O27 V6 1.908020 1_555
O27 O41 3.264922 1_555
O28 P3 1.563738 1_555
O28 V7 1.949039 1_455
O28 O42 3.480816 1_555
O29 P2 1.563738 1_555
O29 V6 1.949039 1_555
O29 O43 3.480816 1_555
O30 P1 1.563738 1_555
O30 V5 1.949039 1_655
O30 O40 3.480816 1_555
O31 P0 1.563738 1_555
O31 V4 1.949039 1_555
O31 O41 3.480816 1_555
O32 P7 1.576421 1_555
O32 V4 1.856171 1_555
O32 O42 3.372151 1_555
O33 P6 1.576421 1_555
O33 V5 1.856171 1_555
O33 O43 3.372151 1_555
O34 P5 1.576421 1_555
O34 V6 1.856171 1_555
O34 O40 3.372151 1_555
O35 P4 1.576421 1_555
O35 V7 1.856171 1_555
O35 O41 3.372151 1_555
O36 P7 1.531462 1_555
O36 V7 1.974165 1_455
O36 O41 3.156765 1_455
O37 P6 1.531462 1_555
O37 V6 1.974165 1_555
O37 O40 3.156765 1_555
O38 P5 1.531462 1_555
O38 V5 1.974165 1_655
O38 O43 3.156765 1_655
O39 P4 1.531462 1_555
O39 V4 1.974165 1_555
O39 O42 3.156765 1_555
O40 O5 3.004242 1_565
O40 O9 3.325037 1_555
O41 O8 3.325037 1_555
O42 O7 3.004242 1_545
O43 O6 3.004242 1_545
