# generated using pymatgen
data_Dy(Bi3O5)4
_symmetry_space_group_name_H-M   'P 1'
_cell_length_a   8.95875394
_cell_length_b   8.95875394
_cell_length_c   8.95875394
_cell_angle_alpha   109.47122063
_cell_angle_beta   109.47122063
_cell_angle_gamma   109.47122063
_symmetry_Int_Tables_number   1
_chemical_formula_structural   Dy(Bi3O5)4
_chemical_formula_sum   'Dy1 Bi12 O20'
_cell_volume   553.50421823
_cell_formula_units_Z   1
loop_
 _symmetry_equiv_pos_site_id
 _symmetry_equiv_pos_as_xyz
  1  'x, y, z'
loop_
 _atom_site_type_symbol
 _atom_site_label
 _atom_site_symmetry_multiplicity
 _atom_site_fract_x
 _atom_site_fract_y
 _atom_site_fract_z
 _atom_site_occupancy
  Dy  Dy0  1  0.00000000  0.00000000  0.00000000  1
  Bi  Bi0  1  0.83058400  0.32305600  0.14314600  1
  Bi  Bi1  1  0.49247200  0.16941600  0.31256200  1
  Bi  Bi2  1  0.85685400  0.17991000  0.68743800  1
  Bi  Bi3  1  0.31256200  0.49247200  0.16941600  1
  Bi  Bi4  1  0.68743800  0.85685400  0.17991000  1
  Bi  Bi5  1  0.82009000  0.67694400  0.50752800  1
  Bi  Bi6  1  0.16941600  0.31256200  0.49247200  1
  Bi  Bi7  1  0.67694400  0.50752800  0.82009000  1
  Bi  Bi8  1  0.32305600  0.14314600  0.83058400  1
  Bi  Bi9  1  0.50752800  0.82009000  0.67694400  1
  Bi  Bi10  1  0.14314600  0.83058400  0.32305600  1
  Bi  Bi11  1  0.17991000  0.68743800  0.85685400  1
  O  O0  1  0.33913900  0.00000000  0.00000000  1
  O  O1  1  0.73383900  0.11140700  0.35819000  1
  O  O2  1  0.88859300  0.62243300  0.24678400  1
  O  O3  1  0.62435100  0.37756700  0.26616100  1
  O  O4  1  0.24594000  0.24594000  0.24594000  1
  O  O5  1  0.75406000  0.00000000  0.00000000  1
  O  O6  1  0.75321600  0.37564900  0.64181000  1
  O  O7  1  0.00000000  0.33913900  0.00000000  1
  O  O8  1  0.37756700  0.26616100  0.62435100  1
  O  O9  1  0.62243300  0.24678400  0.88859300  1
  O  O10  1  0.35819000  0.73383900  0.11140700  1
  O  O11  1  0.64181000  0.75321600  0.37564900  1
  O  O12  1  0.66086100  0.66086100  0.66086100  1
  O  O13  1  0.26616100  0.62435100  0.37756700  1
  O  O14  1  0.00000000  0.00000000  0.75406000  1
  O  O15  1  0.00000000  0.75406000  0.00000000  1
  O  O16  1  0.11140700  0.35819000  0.73383900  1
  O  O17  1  0.37564900  0.64181000  0.75321600  1
  O  O18  1  0.24678400  0.88859300  0.62243300  1
  O  O19  1  0.00000000  0.00000000  0.33913900  1
loop_
_geom_bond_atom_site_label_1
_geom_bond_atom_site_label_2
_geom_bond_distance
_geom_bond_site_symmetry_2
Dy0 O5 2.203316 1_455
Dy0 O15 2.203316 1_545
Dy0 O14 2.203316 1_554
Dy0 O4 2.203316 1_555
Dy0 O19 3.038263 1_555
Dy0 O0 3.038263 1_555
Dy0 O7 3.038263 1_555
Dy0 O12 3.038263 1_444
Bi0 O9 2.102738 1_554
Bi0 O7 2.289957 1_655
Bi0 O2 2.326902 1_555
Bi0 O5 2.471361 1_555
Bi0 O3 2.542985 1_555
Bi1 O3 2.102731 1_555
Bi1 O0 2.289957 1_555
Bi1 O1 2.326894 1_555
Bi1 O4 2.471361 1_555
Bi1 O6 2.542985 1_555
Bi2 O16 2.102738 1_655
Bi2 O7 2.289957 1_656
Bi2 O6 2.326899 1_555
Bi2 O14 2.471361 1_655
Bi2 O1 2.542988 1_555
Bi3 O13 2.102731 1_555
Bi3 O7 2.289957 1_555
Bi3 O10 2.326894 1_555
Bi3 O4 2.471361 1_555
Bi3 O11 2.542985 1_555
Bi4 O1 2.102738 1_565
Bi4 O19 2.289957 1_665
Bi4 O11 2.326899 1_555
Bi4 O5 2.471361 1_565
Bi4 O10 2.542988 1_555
Bi5 O11 2.102731 1_555
Bi5 O12 2.289957 1_555
Bi5 O3 2.326899 1_555
Bi5 O14 2.471361 1_665
Bi5 O2 2.542980 1_555
Bi6 O8 2.102731 1_555
Bi6 O19 2.289957 1_555
Bi6 O16 2.326894 1_555
Bi6 O4 2.471361 1_555
Bi6 O17 2.542985 1_555
Bi7 O6 2.102731 1_555
Bi7 O12 2.289957 1_555
Bi7 O8 2.326899 1_555
Bi7 O15 2.471361 1_656
Bi7 O9 2.542980 1_555
Bi8 O18 2.102738 1_545
Bi8 O0 2.289957 1_556
Bi8 O9 2.326902 1_555
Bi8 O14 2.471361 1_555
Bi8 O8 2.542985 1_555
Bi9 O17 2.102731 1_555
Bi9 O12 2.289957 1_555
Bi9 O13 2.326899 1_555
Bi9 O5 2.471361 1_566
Bi9 O18 2.542980 1_555
Bi10 O2 2.102738 1_455
Bi10 O19 2.289957 1_565
Bi10 O18 2.326902 1_555
Bi10 O15 2.471361 1_555
Bi10 O13 2.542985 1_555
Bi11 O10 2.102738 1_556
Bi11 O0 2.289957 1_566
Bi11 O17 2.326899 1_555
Bi11 O15 2.471361 1_556
Bi11 O16 2.542988 1_555
O0 O18 2.907792 1_544
O0 O3 2.907794 1_555
O0 O10 2.907799 1_545
O1 O6 2.740844 1_555
O1 O19 2.907799 1_655
O2 O3 2.740843 1_555
O7 O9 2.907792 1_454
O8 O9 2.740843 1_555
O10 O11 2.740844 1_555
O11 O12 2.907794 1_555
O12 O17 2.907794 1_555
O12 O6 2.907794 1_555
O13 O18 2.740843 1_555
O13 O7 2.907794 1_555
O16 O17 2.740844 1_555
O16 O7 2.907799 1_556
O19 O2 2.907792 1_445
O19 O8 2.907794 1_555
