# generated using pymatgen
data_RbUAuSe3
_symmetry_space_group_name_H-M   'P 1'
_cell_length_a   16.06987474
_cell_length_b   16.06987474
_cell_length_c   21.54190000
_cell_angle_alpha   90.00000000
_cell_angle_beta   90.00000000
_cell_angle_gamma   149.54146692
_symmetry_Int_Tables_number   1
_chemical_formula_structural   RbUAuSe3
_chemical_formula_sum   'Rb16 U16 Au16 Se48'
_cell_volume   2819.96567720
_cell_formula_units_Z   16
loop_
 _symmetry_equiv_pos_site_id
 _symmetry_equiv_pos_as_xyz
  1  'x, y, z'
loop_
 _atom_site_type_symbol
 _atom_site_label
 _atom_site_symmetry_multiplicity
 _atom_site_fract_x
 _atom_site_fract_y
 _atom_site_fract_z
 _atom_site_occupancy
  Rb  Rb0_0  1  0.12523900  0.37476100  0.12500000  1
  Rb  Rb0_1  1  0.12523900  0.37476100  0.62500000  1
  Rb  Rb0_2  1  0.12523900  0.87476100  0.12500000  1
  Rb  Rb0_3  1  0.12523900  0.87476100  0.62500000  1
  Rb  Rb0_4  1  0.62523900  0.37476100  0.12500000  1
  Rb  Rb0_5  1  0.62523900  0.37476100  0.62500000  1
  Rb  Rb0_6  1  0.62523900  0.87476100  0.12500000  1
  Rb  Rb0_7  1  0.62523900  0.87476100  0.62500000  1
  Rb  Rb1_0  1  0.37476100  0.12523900  0.37500000  1
  Rb  Rb1_1  1  0.37476100  0.12523900  0.87500000  1
  Rb  Rb1_2  1  0.37476100  0.62523900  0.37500000  1
  Rb  Rb1_3  1  0.37476100  0.62523900  0.87500000  1
  Rb  Rb1_4  1  0.87476100  0.12523900  0.37500000  1
  Rb  Rb1_5  1  0.87476100  0.12523900  0.87500000  1
  Rb  Rb1_6  1  0.87476100  0.62523900  0.37500000  1
  Rb  Rb1_7  1  0.87476100  0.62523900  0.87500000  1
  U  U0_0  1  0.00000000  0.00000000  0.00000000  1
  U  U0_1  1  0.00000000  0.00000000  0.50000000  1
  U  U0_2  1  0.00000000  0.50000000  0.00000000  1
  U  U0_3  1  0.00000000  0.50000000  0.50000000  1
  U  U0_4  1  0.50000000  0.00000000  0.00000000  1
  U  U0_5  1  0.50000000  0.00000000  0.50000000  1
  U  U0_6  1  0.50000000  0.50000000  0.00000000  1
  U  U0_7  1  0.50000000  0.50000000  0.50000000  1
  U  U1_0  1  0.00000000  0.00000000  0.25000000  1
  U  U1_1  1  0.00000000  0.00000000  0.75000000  1
  U  U1_2  1  0.00000000  0.50000000  0.25000000  1
  U  U1_3  1  0.00000000  0.50000000  0.75000000  1
  U  U1_4  1  0.50000000  0.00000000  0.25000000  1
  U  U1_5  1  0.50000000  0.00000000  0.75000000  1
  U  U1_6  1  0.50000000  0.50000000  0.25000000  1
  U  U1_7  1  0.50000000  0.50000000  0.75000000  1
  Au  Au0_0  1  0.27144700  0.22855300  0.12500000  1
  Au  Au0_1  1  0.27144700  0.22855300  0.62500000  1
  Au  Au0_2  1  0.27144700  0.72855300  0.12500000  1
  Au  Au0_3  1  0.27144700  0.72855300  0.62500000  1
  Au  Au0_4  1  0.77144700  0.22855300  0.12500000  1
  Au  Au0_5  1  0.77144700  0.22855300  0.62500000  1
  Au  Au0_6  1  0.77144700  0.72855300  0.12500000  1
  Au  Au0_7  1  0.77144700  0.72855300  0.62500000  1
  Au  Au1_0  1  0.22855300  0.27144700  0.37500000  1
  Au  Au1_1  1  0.22855300  0.27144700  0.87500000  1
  Au  Au1_2  1  0.22855300  0.77144700  0.37500000  1
  Au  Au1_3  1  0.22855300  0.77144700  0.87500000  1
  Au  Au1_4  1  0.72855300  0.27144700  0.37500000  1
  Au  Au1_5  1  0.72855300  0.27144700  0.87500000  1
  Au  Au1_6  1  0.72855300  0.77144700  0.37500000  1
  Au  Au1_7  1  0.72855300  0.77144700  0.87500000  1
  Se  Se0_0  1  0.31168000  0.18832000  0.02063800  1
  Se  Se0_1  1  0.31168000  0.18832000  0.52063800  1
  Se  Se0_2  1  0.31168000  0.68832000  0.02063800  1
  Se  Se0_3  1  0.31168000  0.68832000  0.52063800  1
  Se  Se0_4  1  0.81168000  0.18832000  0.02063800  1
  Se  Se0_5  1  0.81168000  0.18832000  0.52063800  1
  Se  Se0_6  1  0.81168000  0.68832000  0.02063800  1
  Se  Se0_7  1  0.81168000  0.68832000  0.52063800  1
  Se  Se1_0  1  0.46738850  0.03261150  0.12500000  1
  Se  Se1_1  1  0.46738850  0.03261150  0.62500000  1
  Se  Se1_2  1  0.46738850  0.53261150  0.12500000  1
  Se  Se1_3  1  0.46738850  0.53261150  0.62500000  1
  Se  Se1_4  1  0.96738850  0.03261150  0.12500000  1
  Se  Se1_5  1  0.96738850  0.03261150  0.62500000  1
  Se  Se1_6  1  0.96738850  0.53261150  0.12500000  1
  Se  Se1_7  1  0.96738850  0.53261150  0.62500000  1
  Se  Se2_0  1  0.31168000  0.18832000  0.22936200  1
  Se  Se2_1  1  0.31168000  0.18832000  0.72936200  1
  Se  Se2_2  1  0.31168000  0.68832000  0.22936200  1
  Se  Se2_3  1  0.31168000  0.68832000  0.72936200  1
  Se  Se2_4  1  0.81168000  0.18832000  0.22936200  1
  Se  Se2_5  1  0.81168000  0.18832000  0.72936200  1
  Se  Se2_6  1  0.81168000  0.68832000  0.22936200  1
  Se  Se2_7  1  0.81168000  0.68832000  0.72936200  1
  Se  Se3_0  1  0.18832000  0.31168000  0.27063800  1
  Se  Se3_1  1  0.18832000  0.31168000  0.77063800  1
  Se  Se3_2  1  0.18832000  0.81168000  0.27063800  1
  Se  Se3_3  1  0.18832000  0.81168000  0.77063800  1
  Se  Se3_4  1  0.68832000  0.31168000  0.27063800  1
  Se  Se3_5  1  0.68832000  0.31168000  0.77063800  1
  Se  Se3_6  1  0.68832000  0.81168000  0.27063800  1
  Se  Se3_7  1  0.68832000  0.81168000  0.77063800  1
  Se  Se4_0  1  0.03261150  0.46738850  0.37500000  1
  Se  Se4_1  1  0.03261150  0.46738850  0.87500000  1
  Se  Se4_2  1  0.03261150  0.96738850  0.37500000  1
  Se  Se4_3  1  0.03261150  0.96738850  0.87500000  1
  Se  Se4_4  1  0.53261150  0.46738850  0.37500000  1
  Se  Se4_5  1  0.53261150  0.46738850  0.87500000  1
  Se  Se4_6  1  0.53261150  0.96738850  0.37500000  1
  Se  Se4_7  1  0.53261150  0.96738850  0.87500000  1
  Se  Se5_0  1  0.18832000  0.31168000  0.47936200  1
  Se  Se5_1  1  0.18832000  0.31168000  0.97936200  1
  Se  Se5_2  1  0.18832000  0.81168000  0.47936200  1
  Se  Se5_3  1  0.18832000  0.81168000  0.97936200  1
  Se  Se5_4  1  0.68832000  0.31168000  0.47936200  1
  Se  Se5_5  1  0.68832000  0.31168000  0.97936200  1
  Se  Se5_6  1  0.68832000  0.81168000  0.47936200  1
  Se  Se5_7  1  0.68832000  0.81168000  0.97936200  1
loop_
_geom_bond_atom_site_label_1
_geom_bond_atom_site_label_2
_geom_bond_distance
_geom_bond_site_symmetry_2
Rb0_0 Se1_2 3.552601 1_555
Rb0_0 Se1_4 3.552601 1_455
Rb0_0 Se2_4 3.659775 1_455
Rb0_0 Se2_2 3.659775 1_555
Rb0_0 Se0_4 3.659775 1_455
Rb0_0 Se0_2 3.659775 1_555
Rb0_0 Se3_0 3.697233 1_555
Rb0_0 Se5_1 3.697233 1_554
Rb0_0 Rb0_6 4.221268 1_555
Rb0_0 Rb0_6 4.221268 1_445
Rb0_1 Se1_3 3.552601 1_555
Rb0_1 Se1_5 3.552601 1_455
Rb0_1 Se2_5 3.659775 1_455
Rb0_1 Se2_3 3.659775 1_555
Rb0_1 Se0_5 3.659775 1_455
Rb0_1 Se0_3 3.659775 1_555
Rb0_1 Se3_1 3.697233 1_555
Rb0_1 Se5_0 3.697233 1_555
Rb0_1 Rb0_7 4.221268 1_445
Rb0_1 Rb0_7 4.221268 1_555
Rb0_2 Se1_6 3.552601 1_455
Rb0_2 Se1_0 3.552601 1_565
Rb0_2 Se2_0 3.659775 1_565
Rb0_2 Se2_6 3.659775 1_455
Rb0_2 Se0_0 3.659775 1_565
Rb0_2 Se0_6 3.659775 1_455
Rb0_2 Se3_2 3.697233 1_555
Rb0_2 Se5_3 3.697233 1_554
Rb0_2 Rb0_4 4.221268 1_565
Rb0_2 Rb0_4 4.221268 1_455
Rb0_3 Se1_7 3.552601 1_455
Rb0_3 Se1_1 3.552601 1_565
Rb0_3 Se2_1 3.659775 1_565
Rb0_3 Se2_7 3.659775 1_455
Rb0_3 Se0_1 3.659775 1_565
Rb0_3 Se0_7 3.659775 1_455
Rb0_3 Se3_3 3.697233 1_555
Rb0_3 Se5_2 3.697233 1_555
Rb0_3 Rb0_5 4.221268 1_565
Rb0_3 Rb0_5 4.221268 1_455
Rb0_4 Se1_6 3.552601 1_555
Rb0_4 Se1_0 3.552601 1_555
Rb0_4 Se2_0 3.659775 1_555
Rb0_4 Se2_6 3.659775 1_555
Rb0_4 Se0_0 3.659775 1_555
Rb0_4 Se0_6 3.659775 1_555
Rb0_4 Se3_4 3.697233 1_555
Rb0_4 Se5_5 3.697233 1_554
Rb0_5 Se1_7 3.552601 1_555
Rb0_5 Se1_1 3.552601 1_555
Rb0_5 Se2_1 3.659775 1_555
Rb0_5 Se2_7 3.659775 1_555
Rb0_5 Se0_1 3.659775 1_555
Rb0_5 Se0_7 3.659775 1_555
Rb0_5 Se3_5 3.697233 1_555
Rb0_5 Se5_4 3.697233 1_555
Rb0_6 Se1_4 3.552601 1_565
Rb0_6 Se1_2 3.552601 1_555
Rb0_6 Se2_4 3.659775 1_565
Rb0_6 Se2_2 3.659775 1_555
Rb0_6 Se0_4 3.659775 1_565
Rb0_6 Se0_2 3.659775 1_555
Rb0_6 Se3_6 3.697233 1_555
Rb0_6 Se5_7 3.697233 1_554
Rb0_7 Se1_5 3.552601 1_565
Rb0_7 Se1_3 3.552601 1_555
Rb0_7 Se2_5 3.659775 1_565
Rb0_7 Se2_3 3.659775 1_555
Rb0_7 Se0_5 3.659775 1_565
Rb0_7 Se0_3 3.659775 1_555
Rb0_7 Se3_7 3.697233 1_555
Rb0_7 Se5_6 3.697233 1_555
Rb1_0 Se4_4 3.552601 1_555
Rb1_0 Se4_2 3.552601 1_545
Rb1_0 Se5_2 3.659775 1_545
Rb1_0 Se5_4 3.659775 1_555
Rb1_0 Se3_2 3.659775 1_545
Rb1_0 Se3_4 3.659775 1_555
Rb1_0 Se0_1 3.697233 1_555
Rb1_0 Se2_0 3.697233 1_555
Rb1_0 Rb1_6 4.221268 1_555
Rb1_0 Rb1_6 4.221268 1_445
Rb1_1 Se4_5 3.552601 1_555
Rb1_1 Se4_3 3.552601 1_545
Rb1_1 Se5_3 3.659775 1_545
Rb1_1 Se5_5 3.659775 1_555
Rb1_1 Se3_3 3.659775 1_545
Rb1_1 Se3_5 3.659775 1_555
Rb1_1 Se0_0 3.697233 1_556
Rb1_1 Se2_1 3.697233 1_555
Rb1_1 Rb1_7 4.221268 1_445
Rb1_1 Rb1_7 4.221268 1_555
Rb1_2 Se4_6 3.552601 1_555
Rb1_2 Se4_0 3.552601 1_555
Rb1_2 Se5_0 3.659775 1_555
Rb1_2 Se5_6 3.659775 1_555
Rb1_2 Se3_0 3.659775 1_555
Rb1_2 Se3_6 3.659775 1_555
Rb1_2 Se0_3 3.697233 1_555
Rb1_2 Se2_2 3.697233 1_555
Rb1_2 Rb1_4 4.221268 1_565
Rb1_2 Rb1_4 4.221268 1_455
Rb1_3 Se4_7 3.552601 1_555
Rb1_3 Se4_1 3.552601 1_555
Rb1_3 Se5_1 3.659775 1_555
Rb1_3 Se5_7 3.659775 1_555
Rb1_3 Se3_1 3.659775 1_555
Rb1_3 Se3_7 3.659775 1_555
Rb1_3 Se0_2 3.697233 1_556
Rb1_3 Se2_3 3.697233 1_555
Rb1_3 Rb1_5 4.221268 1_565
Rb1_3 Rb1_5 4.221268 1_455
Rb1_4 Se4_0 3.552601 1_655
Rb1_4 Se4_6 3.552601 1_545
Rb1_4 Se5_6 3.659775 1_545
Rb1_4 Se5_0 3.659775 1_655
Rb1_4 Se3_0 3.659775 1_655
Rb1_4 Se3_6 3.659775 1_545
Rb1_4 Se0_5 3.697233 1_555
Rb1_4 Se2_4 3.697233 1_555
Rb1_5 Se4_1 3.552601 1_655
Rb1_5 Se4_7 3.552601 1_545
Rb1_5 Se5_1 3.659775 1_655
Rb1_5 Se5_7 3.659775 1_545
Rb1_5 Se3_1 3.659775 1_655
Rb1_5 Se3_7 3.659775 1_545
Rb1_5 Se0_4 3.697233 1_556
Rb1_5 Se2_5 3.697233 1_555
Rb1_6 Se4_2 3.552601 1_655
Rb1_6 Se4_4 3.552601 1_555
Rb1_6 Se5_2 3.659775 1_655
Rb1_6 Se5_4 3.659775 1_555
Rb1_6 Se3_4 3.659775 1_555
Rb1_6 Se3_2 3.659775 1_655
Rb1_6 Se0_7 3.697233 1_555
Rb1_6 Se2_6 3.697233 1_555
Rb1_7 Se4_5 3.552601 1_555
Rb1_7 Se4_3 3.552601 1_655
Rb1_7 Se5_5 3.659775 1_555
Rb1_7 Se5_3 3.659775 1_655
Rb1_7 Se3_3 3.659775 1_655
Rb1_7 Se3_5 3.659775 1_555
Rb1_7 Se0_6 3.697233 1_556
Rb1_7 Se2_7 3.697233 1_555
Au0_0 Se2_0 2.571164 1_555
Au0_0 Se0_0 2.571164 1_555
Au0_0 Se1_4 2.695391 1_455
Au0_0 Se1_2 2.695391 1_555
Au0_0 Rb0_2 3.849002 1_545
Au0_0 Rb0_4 3.849002 1_555
Au0_1 Se2_1 2.571164 1_555
Au0_1 Se0_1 2.571164 1_555
Au0_1 Se1_5 2.695391 1_455
Au0_1 Se1_3 2.695391 1_555
Au0_1 Rb0_3 3.849002 1_545
Au0_1 Rb0_5 3.849002 1_555
Au0_2 Se2_2 2.571164 1_555
Au0_2 Se0_2 2.571164 1_555
Au0_2 Se1_6 2.695391 1_455
Au0_2 Se1_0 2.695391 1_565
Au0_2 Rb0_0 3.849002 1_555
Au0_2 Rb0_6 3.849002 1_555
Au0_3 Se2_3 2.571164 1_555
Au0_3 Se0_3 2.571164 1_555
Au0_3 Se1_7 2.695391 1_455
Au0_3 Se1_1 2.695391 1_565
Au0_3 Rb0_1 3.849002 1_555
Au0_3 Rb0_7 3.849002 1_555
Au0_4 Se2_4 2.571164 1_555
Au0_4 Se0_4 2.571164 1_555
Au0_4 Se1_0 2.695391 1_555
Au0_4 Se1_6 2.695391 1_555
Au0_4 Rb0_6 3.849002 1_545
Au0_4 Rb0_0 3.849002 1_655
Au0_5 Se2_5 2.571164 1_555
Au0_5 Se0_5 2.571164 1_555
Au0_5 Se1_1 2.695391 1_555
Au0_5 Se1_7 2.695391 1_555
Au0_5 Rb0_7 3.849002 1_545
Au0_5 Rb0_1 3.849002 1_655
Au0_6 Se2_6 2.571164 1_555
Au0_6 Se0_6 2.571164 1_555
Au0_6 Se1_2 2.695391 1_555
Au0_6 Se1_4 2.695391 1_565
Au0_6 Rb0_4 3.849002 1_555
Au0_6 Rb0_2 3.849002 1_655
Au0_7 Se2_7 2.571164 1_555
Au0_7 Se0_7 2.571164 1_555
Au0_7 Se1_3 2.695391 1_555
Au0_7 Se1_5 2.695391 1_565
Au0_7 Rb0_5 3.849002 1_555
Au0_7 Rb0_3 3.849002 1_655
Au1_0 Se5_0 2.571164 1_555
Au1_0 Se3_0 2.571164 1_555
Au1_0 Se4_2 2.695391 1_545
Au1_0 Se4_4 2.695391 1_555
Au1_0 Rb1_4 3.849002 1_455
Au1_0 Rb1_2 3.849002 1_555
Au1_1 Se5_1 2.571164 1_555
Au1_1 Se3_1 2.571164 1_555
Au1_1 Se4_3 2.695391 1_545
Au1_1 Se4_5 2.695391 1_555
Au1_1 Rb1_5 3.849002 1_455
Au1_1 Rb1_3 3.849002 1_555
Au1_2 Se5_2 2.571164 1_555
Au1_2 Se3_2 2.571164 1_555
Au1_2 Se4_0 2.695391 1_555
Au1_2 Se4_6 2.695391 1_555
Au1_2 Rb1_6 3.849002 1_455
Au1_2 Rb1_0 3.849002 1_565
Au1_3 Se5_3 2.571164 1_555
Au1_3 Se3_3 2.571164 1_555
Au1_3 Se4_1 2.695391 1_555
Au1_3 Se4_7 2.695391 1_555
Au1_3 Rb1_7 3.849002 1_455
Au1_3 Rb1_1 3.849002 1_565
Au1_4 Se5_4 2.571164 1_555
Au1_4 Se3_4 2.571164 1_555
Au1_4 Se4_6 2.695391 1_545
Au1_4 Se4_0 2.695391 1_655
Au1_4 Rb1_0 3.849002 1_555
Au1_4 Rb1_6 3.849002 1_555
Au1_5 Se5_5 2.571164 1_555
Au1_5 Se3_5 2.571164 1_555
Au1_5 Se4_7 2.695391 1_545
Au1_5 Se4_1 2.695391 1_655
Au1_5 Rb1_1 3.849002 1_555
Au1_5 Rb1_7 3.849002 1_555
Au1_6 Se5_6 2.571164 1_555
Au1_6 Se3_6 2.571164 1_555
Au1_6 Se4_4 2.695391 1_555
Au1_6 Se4_2 2.695391 1_655
Au1_6 Rb1_2 3.849002 1_555
Au1_6 Rb1_4 3.849002 1_565
Au1_7 Se5_7 2.571164 1_555
Au1_7 Se3_7 2.571164 1_555
Au1_7 Se4_5 2.695391 1_555
Au1_7 Se4_3 2.695391 1_655
Au1_7 Rb1_3 3.849002 1_555
Au1_7 Rb1_5 3.849002 1_565
Se0_0 U0_0 2.882897 1_555
Se0_0 U0_6 2.882897 1_555
Se0_1 U0_1 2.882897 1_555
Se0_1 U0_7 2.882897 1_555
Se0_2 U0_4 2.882897 1_565
Se0_2 U0_2 2.882897 1_555
Se0_3 U0_5 2.882897 1_565
Se0_3 U0_3 2.882897 1_555
Se0_4 U0_4 2.882897 1_555
Se0_4 U0_2 2.882897 1_655
Se0_5 U0_5 2.882897 1_555
Se0_5 U0_3 2.882897 1_655
Se0_6 U0_6 2.882897 1_555
Se0_6 U0_0 2.882897 1_665
Se0_7 U0_1 2.882897 1_665
Se0_7 U0_7 2.882897 1_555
Se1_0 U0_4 2.876386 1_555
Se1_0 U1_4 2.876386 1_555
Se1_1 U0_5 2.876386 1_555
Se1_1 U1_5 2.876386 1_555
Se1_2 U1_6 2.876386 1_555
Se1_2 U0_6 2.876386 1_555
Se1_3 U0_7 2.876386 1_555
Se1_3 U1_7 2.876386 1_555
Se1_4 U1_0 2.876386 1_655
Se1_4 U0_0 2.876386 1_655
Se1_5 U0_1 2.876386 1_655
Se1_5 U1_1 2.876386 1_655
Se1_6 U1_2 2.876386 1_655
Se1_6 U0_2 2.876386 1_655
Se1_7 U1_3 2.876386 1_655
Se1_7 U0_3 2.876386 1_655
Se2_0 U1_6 2.882897 1_555
Se2_0 U1_0 2.882897 1_555
Se2_1 U1_1 2.882897 1_555
Se2_1 U1_7 2.882897 1_555
Se2_2 U1_4 2.882897 1_565
Se2_2 U1_2 2.882897 1_555
Se2_3 U1_5 2.882897 1_565
Se2_3 U1_3 2.882897 1_555
Se2_4 U1_4 2.882897 1_555
Se2_4 U1_2 2.882897 1_655
Se2_5 U1_3 2.882897 1_655
Se2_5 U1_5 2.882897 1_555
Se2_6 U1_6 2.882897 1_555
Se2_6 U1_0 2.882897 1_665
Se2_7 U1_7 2.882897 1_555
Se2_7 U1_1 2.882897 1_665
Se3_0 U1_0 2.882897 1_555
Se3_0 U1_6 2.882897 1_555
Se3_1 U1_1 2.882897 1_555
Se3_1 U1_7 2.882897 1_555
Se3_2 U1_2 2.882897 1_555
Se3_2 U1_4 2.882897 1_565
Se3_3 U1_3 2.882897 1_555
Se3_3 U1_5 2.882897 1_565
Se3_4 U1_2 2.882897 1_655
Se3_4 U1_4 2.882897 1_555
Se3_5 U1_3 2.882897 1_655
Se3_5 U1_5 2.882897 1_555
Se3_6 U1_6 2.882897 1_555
Se3_6 U1_0 2.882897 1_665
Se3_7 U1_7 2.882897 1_555
Se3_7 U1_1 2.882897 1_665
Se4_0 U1_2 2.876386 1_555
Se4_0 U0_3 2.876386 1_555
Se4_1 U0_2 2.876386 1_556
Se4_1 U1_3 2.876386 1_555
Se4_2 U1_0 2.876386 1_565
Se4_2 U0_1 2.876386 1_565
Se4_3 U1_1 2.876386 1_565
Se4_3 U0_0 2.876386 1_566
Se4_4 U0_7 2.876386 1_555
Se4_4 U1_6 2.876386 1_555
Se4_5 U1_7 2.876386 1_555
Se4_5 U0_6 2.876386 1_556
Se4_6 U1_4 2.876386 1_565
Se4_6 U0_5 2.876386 1_565
Se4_7 U1_5 2.876386 1_565
Se4_7 U0_4 2.876386 1_566
Se5_0 U0_1 2.882897 1_555
Se5_0 U0_7 2.882897 1_555
Se5_1 U0_0 2.882897 1_556
Se5_1 U0_6 2.882897 1_556
Se5_2 U0_3 2.882897 1_555
Se5_2 U0_5 2.882897 1_565
Se5_3 U0_2 2.882897 1_556
Se5_3 U0_4 2.882897 1_566
Se5_4 U0_3 2.882897 1_655
Se5_4 U0_5 2.882897 1_555
Se5_5 U0_2 2.882897 1_656
Se5_5 U0_4 2.882897 1_556
Se5_6 U0_7 2.882897 1_555
Se5_6 U0_1 2.882897 1_665
Se5_7 U0_0 2.882897 1_666
Se5_7 U0_6 2.882897 1_556
