# generated using pymatgen
data_Li11V8(PO4)12
_symmetry_space_group_name_H-M   'P 1'
_cell_length_a   12.25535474
_cell_length_b   8.72008018
_cell_length_c   8.78387889
_cell_angle_alpha   90.30482948
_cell_angle_beta   90.18092658
_cell_angle_gamma   90.15872245
_symmetry_Int_Tables_number   1
_chemical_formula_structural   Li11V8(PO4)12
_chemical_formula_sum   'Li11 V8 P12 O48'
_cell_volume   938.69111162
_cell_formula_units_Z   1
loop_
 _symmetry_equiv_pos_site_id
 _symmetry_equiv_pos_as_xyz
  1  'x, y, z'
loop_
 _atom_site_type_symbol
 _atom_site_label
 _atom_site_symmetry_multiplicity
 _atom_site_fract_x
 _atom_site_fract_y
 _atom_site_fract_z
 _atom_site_occupancy
  Li  Li0  1  0.18189464  0.21802753  0.77763231  1
  Li  Li1  1  0.18053161  0.77423248  0.27598789  1
  Li  Li2  1  0.28960134  0.05580736  0.41820205  1
  Li  Li3  1  0.31749385  0.31390397  0.26679341  1
  Li  Li4  1  0.31728690  0.71532684  0.77294539  1
  Li  Li5  1  0.68158898  0.27324015  0.22827720  1
  Li  Li6  1  0.68493016  0.68514611  0.73217289  1
  Li  Li7  1  0.71295877  0.94798718  0.58628499  1
  Li  Li8  1  0.78547051  0.55394782  0.08239772  1
  Li  Li9  1  0.81909278  0.22721413  0.72934526  1
  Li  Li10  1  0.81560306  0.81364732  0.23309689  1
  V  V0  1  0.11259622  0.26008095  0.46179249  1
  V  V1  1  0.11418018  0.74642825  0.95805202  1
  V  V2  1  0.38751863  0.74673659  0.46188022  1
  V  V3  1  0.38511465  0.24443114  0.96127603  1
  V  V4  1  0.61192720  0.25509482  0.54015878  1
  V  V5  1  0.60961330  0.75988424  0.03910223  1
  V  V6  1  0.88820095  0.24533671  0.04095984  1
  V  V7  1  0.88889561  0.74256476  0.53911674  1
  P  P0  1  0.99863091  0.54438408  0.24667777  1
  P  P1  1  0.00023301  0.45953898  0.75041504  1
  P  P2  1  0.14781293  0.10059067  0.10565556  1
  P  P3  1  0.14557960  0.89778255  0.60380027  1
  P  P4  1  0.35352118  0.39263935  0.60530999  1
  P  P5  1  0.35135817  0.60923273  0.09945438  1
  P  P6  1  0.49789677  0.04641978  0.25323443  1
  P  P7  1  0.50178009  0.95606657  0.75121573  1
  P  P8  1  0.64697589  0.60679440  0.39279705  1
  P  P9  1  0.64530719  0.39070918  0.90247465  1
  P  P10  1  0.85429354  0.10949780  0.40308490  1
  P  P11  1  0.85520334  0.89296968  0.89437291  1
  O  O0  1  0.03157412  0.15341262  0.07132741  1
  O  O1  1  0.03184511  0.84497417  0.56111975  1
  O  O2  1  0.06812482  0.56578527  0.86035150  1
  O  O3  1  0.06744038  0.44665059  0.35333773  1
  O  O4  1  0.08376038  0.35961246  0.66742236  1
  O  O5  1  0.08039290  0.64609278  0.15484624  1
  O  O6  1  0.15851164  0.07554409  0.60189953  1
  O  O7  1  0.15397312  0.92073094  0.09972519  1
  O  O8  1  0.18379683  0.15151976  0.26859815  1
  O  O9  1  0.17886589  0.83797450  0.76499014  1
  O  O10  1  0.22536809  0.16777996  0.98510201  1
  O  O11  1  0.22838558  0.84060701  0.48030643  1
  O  O12  1  0.26815093  0.67838302  0.98092518  1
  O  O13  1  0.27825859  0.31361003  0.48095145  1
  O  O14  1  0.32098617  0.33112255  0.76291470  1
  O  O15  1  0.31977992  0.66104021  0.26296159  1
  O  O16  1  0.34084738  0.43310760  0.09077067  1
  O  O17  1  0.33726363  0.56807650  0.60075464  1
  O  O18  1  0.41822641  0.15690070  0.17317939  1
  O  O19  1  0.41967204  0.85103824  0.66324700  1
  O  O20  1  0.43663808  0.05304337  0.86299462  1
  O  O21  1  0.42584709  0.95096829  0.36195633  1
  O  O22  1  0.46455237  0.66393280  0.05510176  1
  O  O23  1  0.47103902  0.35113665  0.56419988  1
  O  O24  1  0.53054194  0.65364376  0.42713453  1
  O  O25  1  0.53200575  0.34170822  0.94441803  1
  O  O26  1  0.57466339  0.04942631  0.64156591  1
  O  O27  1  0.56735338  0.95058504  0.14332082  1
  O  O28  1  0.58106174  0.14804064  0.34343480  1
  O  O29  1  0.58372132  0.84574644  0.83172135  1
  O  O30  1  0.66300109  0.43172977  0.39520563  1
  O  O31  1  0.66226527  0.56866041  0.91387665  1
  O  O32  1  0.67924134  0.34099015  0.74011520  1
  O  O33  1  0.68353058  0.66428253  0.23130983  1
  O  O34  1  0.72992496  0.32954273  0.02342233  1
  O  O35  1  0.72214038  0.68647866  0.51517286  1
  O  O36  1  0.77164639  0.16909629  0.52534648  1
  O  O37  1  0.78237212  0.81460068  0.01698603  1
  O  O38  1  0.82137065  0.15868924  0.24107927  1
  O  O39  1  0.81711764  0.83593316  0.73402045  1
  O  O40  1  0.84169984  0.06883641  0.89715279  1
  O  O41  1  0.83969487  0.93139231  0.41347029  1
  O  O42  1  0.92292998  0.35406690  0.84071057  1
  O  O43  1  0.92101836  0.65670171  0.32932995  1
  O  O44  1  0.92385024  0.45037007  0.13931317  1
  O  O45  1  0.92969689  0.55314435  0.64113755  1
  O  O46  1  0.96845486  0.16147692  0.44537046  1
  O  O47  1  0.97450360  0.84644504  0.92503035  1
loop_
_geom_bond_atom_site_label_1
_geom_bond_atom_site_label_2
_geom_bond_distance
_geom_bond_site_symmetry_2
Li0 O10 1.949513 1_555
Li0 O14 1.971915 1_555
Li0 O4 1.980274 1_555
Li0 O6 1.995851 1_555
Li1 O5 1.964297 1_555
Li1 O11 1.969859 1_555
Li1 O15 1.977115 1_555
Li1 O7 2.038430 1_555
Li2 O21 1.968948 1_545
Li2 O8 2.027737 1_555
Li2 O11 2.094658 1_545
Li2 O6 2.286745 1_555
Li2 O13 2.316448 1_555
Li3 O16 1.889780 1_555
Li3 O13 1.943104 1_555
Li3 O18 2.019498 1_555
Li3 O8 2.162767 1_555
Li4 O12 1.953456 1_555
Li4 O19 1.978619 1_555
Li4 O17 1.994934 1_555
Li4 O9 2.009123 1_555
Li5 O28 1.935225 1_555
Li5 O34 1.960711 1_555
Li5 O38 1.988596 1_555
Li5 O30 2.023413 1_555
Li6 O31 1.916987 1_555
Li6 O35 1.961381 1_555
Li6 O29 2.065860 1_555
Li6 O39 2.083598 1_555
Li7 O26 1.974769 1_565
Li7 O39 2.068373 1_555
Li7 O36 2.127694 1_565
Li7 O41 2.179777 1_555
Li7 O35 2.364246 1_555
Li8 O44 1.987387 1_555
Li8 O33 2.049631 1_555
Li8 O31 2.115775 1_554
Li8 O34 2.130855 1_555
Li8 O37 2.347753 1_555
Li9 O42 1.942358 1_555
Li9 O36 1.946273 1_555
Li9 O32 1.985015 1_555
Li9 O40 2.044012 1_555
Li10 O41 1.905175 1_555
Li10 O37 1.940294 1_555
Li10 O43 2.066823 1_555
Li10 O33 2.074723 1_555
O0 P2 1.528013 1_555
O0 V6 1.951454 1_455
O1 P3 1.512199 1_555
O1 V7 1.972647 1_455
O2 P1 1.569808 1_555
O2 V1 1.874571 1_555
O3 P0 1.524039 1_455
O3 V0 1.969457 1_555
O4 P1 1.530192 1_555
O4 V0 2.032163 1_555
O5 P0 1.564964 1_455
O5 V1 1.985872 1_554
O6 P3 1.557922 1_545
O6 V0 2.107697 1_555
O7 P2 1.571011 1_565
O7 V1 2.017075 1_554
O8 P2 1.558332 1_555
O8 V0 2.129368 1_555
O9 P3 1.564765 1_555
O9 V1 2.039841 1_555
O10 P2 1.542031 1_556
O10 V3 2.078504 1_555
O11 P3 1.568160 1_555
O11 V2 2.123456 1_555
O12 P5 1.578236 1_556
O12 V1 1.989513 1_555
O13 P4 1.581460 1_555
O13 V0 2.088032 1_555
O14 P4 1.540602 1_555
O14 V3 2.057593 1_555
O15 P5 1.553766 1_555
O15 V2 2.067385 1_555
O16 P5 1.542325 1_555
O16 V3 2.069783 1_554
O17 P4 1.544006 1_555
O17 V2 2.077058 1_555
O18 P6 1.544035 1_555
O18 V3 2.055208 1_554
O19 P7 1.559130 1_555
O19 V2 2.021777 1_555
O20 P7 1.521956 1_545
O20 V3 1.980712 1_555
O21 P6 1.547325 1_565
O21 V2 2.043845 1_555
O22 P5 1.518369 1_555
O22 V5 1.968474 1_555
O23 P4 1.529836 1_555
O23 V4 1.932793 1_555
O24 P8 1.516134 1_555
O24 V2 1.957822 1_555
O25 P9 1.499335 1_555
O25 V3 1.994183 1_555
O26 P7 1.548547 1_545
O26 V4 2.057539 1_555
O27 P6 1.534801 1_565
O27 V5 1.965492 1_555
O28 P6 1.560201 1_555
O28 V4 1.994312 1_555
O29 P7 1.562712 1_555
O29 V5 1.997928 1_556
O30 P8 1.539947 1_555
O30 V4 2.099035 1_555
O31 P9 1.567666 1_555
O31 V5 2.097078 1_556
O32 P9 1.546925 1_555
O32 V4 2.073625 1_555
O33 P8 1.573032 1_555
O33 V5 2.091783 1_555
O34 P9 1.578199 1_554
O34 V6 2.081503 1_555
O35 P8 1.571339 1_555
O35 V7 2.109636 1_555
O36 P10 1.566261 1_555
O36 V4 2.102255 1_555
O37 P11 1.560190 1_554
O37 V5 2.178533 1_555
O38 P10 1.541319 1_555
O38 V6 2.086011 1_555
O39 P11 1.560851 1_555
O39 V7 2.089576 1_555
O40 P11 1.543003 1_545
O40 V6 2.063766 1_556
O41 P10 1.566047 1_565
O41 V7 2.076908 1_555
O42 P1 1.542781 1_655
O42 V6 2.048001 1_556
O43 P0 1.546941 1_555
O43 V7 2.025540 1_555
O44 P0 1.543872 1_555
O44 V6 2.027488 1_555
O45 P1 1.530327 1_655
O45 V7 1.949079 1_555
O46 P10 1.514023 1_555
O46 V0 1.967057 1_655
O47 P11 1.541659 1_555
O47 V1 1.944949 1_655
