# generated using pymatgen
data_Li3MnV(PO4)3
_symmetry_space_group_name_H-M   'P 1'
_cell_length_a   9.82383387
_cell_length_b   9.82383387
_cell_length_c   9.88636440
_cell_angle_alpha   86.55209001
_cell_angle_beta   86.55209001
_cell_angle_gamma   88.17437593
_symmetry_Int_Tables_number   1
_chemical_formula_structural   Li3MnV(PO4)3
_chemical_formula_sum   'Li12 Mn4 V4 P12 O48'
_cell_volume   950.27750920
_cell_formula_units_Z   4
loop_
 _symmetry_equiv_pos_site_id
 _symmetry_equiv_pos_as_xyz
  1  'x, y, z'
loop_
 _atom_site_type_symbol
 _atom_site_label
 _atom_site_symmetry_multiplicity
 _atom_site_fract_x
 _atom_site_fract_y
 _atom_site_fract_z
 _atom_site_occupancy
  Li  Li0  1  0.95570000  0.51909300  0.74785700  1
  Li  Li1  1  0.26465200  0.35943900  0.70007000  1
  Li  Li2  1  0.93479000  0.77278000  0.61345900  1
  Li  Li3  1  0.45124800  0.84938600  0.52284300  1
  Li  Li4  1  0.15061400  0.54875200  0.47715700  1
  Li  Li5  1  0.22722000  0.06521000  0.38654100  1
  Li  Li6  1  0.64056100  0.73534800  0.29993000  1
  Li  Li7  1  0.48090700  0.04430000  0.25214300  1
  Li  Li8  1  0.76799200  0.95240800  0.10512100  1
  Li  Li9  1  0.52642800  0.16786500  0.97900200  1
  Li  Li10  1  0.83213500  0.47357200  0.02099800  1
  Li  Li11  1  0.04759200  0.23200800  0.89487900  1
  Mn  Mn0  1  0.03270800  0.75927600  0.22121100  1
  Mn  Mn1  1  0.46849800  0.53150200  0.00000000  1
  Mn  Mn2  1  0.25531600  0.74468400  0.00000000  1
  Mn  Mn3  1  0.24072400  0.96729200  0.77878900  1
  V  V0  1  0.74219000  0.02330200  0.72015500  1
  V  V1  1  0.75069300  0.24930700  0.50000000  1
  V  V2  1  0.53459700  0.46540300  0.50000000  1
  V  V3  1  0.97669800  0.25781000  0.27984500  1
  P  P0  1  0.32942600  0.64450600  0.69777300  1
  P  P1  1  0.04656200  0.16755800  0.60256700  1
  P  P2  1  0.44672100  0.14431500  0.57734200  1
  P  P3  1  0.85568500  0.55327900  0.42265800  1
  P  P4  1  0.83244200  0.95343800  0.39743300  1
  P  P5  1  0.35549400  0.67057400  0.30222700  1
  P  P6  1  0.65583800  0.32388200  0.20193200  1
  P  P7  1  0.17548200  0.04935100  0.10422100  1
  P  P8  1  0.15656200  0.45167100  0.07267700  1
  P  P9  1  0.54832900  0.84343800  0.92732300  1
  P  P10  1  0.95064900  0.82451800  0.89577900  1
  P  P11  1  0.67611800  0.34416200  0.79806800  1
  O  O0  1  0.37967300  0.09333000  0.71733100  1
  O  O1  1  0.09396500  0.27472200  0.69434400  1
  O  O2  1  0.67227800  0.37783900  0.63708300  1
  O  O3  1  0.88551800  0.16441500  0.62804700  1
  O  O4  1  0.30792000  0.79875000  0.66026700  1
  O  O5  1  0.10928300  0.02427500  0.63675200  1
  O  O6  1  0.21648100  0.55375200  0.65516800  1
  O  O7  1  0.46945300  0.60205200  0.62913500  1
  O  O8  1  0.60667100  0.11857500  0.58121000  1
  O  O9  1  0.41121400  0.29931700  0.56435900  1
  O  O10  1  0.80084400  0.91690800  0.55175800  1
  O  O11  1  0.94018800  0.59669700  0.53770900  1
  O  O12  1  0.88142500  0.39332900  0.41879000  1
  O  O13  1  0.40330300  0.05981200  0.46229100  1
  O  O14  1  0.08309200  0.19915600  0.44824200  1
  O  O15  1  0.70068300  0.58878600  0.43564100  1
  O  O16  1  0.83558500  0.11448200  0.37195300  1
  O  O17  1  0.62216100  0.32772200  0.36291700  1
  O  O18  1  0.97572500  0.89071700  0.36324800  1
  O  O19  1  0.39794800  0.53054700  0.37086500  1
  O  O20  1  0.44624800  0.78351900  0.34483200  1
  O  O21  1  0.72527800  0.90603500  0.30565600  1
  O  O22  1  0.20125000  0.69208000  0.33973300  1
  O  O23  1  0.90667000  0.62032700  0.28266900  1
  O  O24  1  0.11081500  0.39397500  0.21682300  1
  O  O25  1  0.81458400  0.31806300  0.17300200  1
  O  O26  1  0.58819000  0.19830200  0.15661400  1
  O  O27  1  0.29240100  0.08395200  0.18952300  1
  O  O28  1  0.61189700  0.46138000  0.13324000  1
  O  O29  1  0.03746600  0.11636400  0.15201200  1
  O  O30  1  0.37989600  0.66481900  0.14346300  1
  O  O31  1  0.16079800  0.88682900  0.12810200  1
  O  O32  1  0.91221200  0.80563100  0.05016100  1
  O  O33  1  0.31094100  0.41575300  0.04715800  1
  O  O34  1  0.59452900  0.93401800  0.03537900  1
  O  O35  1  0.12895000  0.61376100  0.07554500  1
  O  O36  1  0.06598200  0.40547100  0.96462100  1
  O  O37  1  0.58424700  0.68905900  0.95284200  1
  O  O38  1  0.19436900  0.08778800  0.94983900  1
  O  O39  1  0.38623900  0.87105000  0.92445500  1
  O  O40  1  0.53862000  0.38810300  0.86676000  1
  O  O41  1  0.80169800  0.41181000  0.84338600  1
  O  O42  1  0.88363600  0.96253400  0.84798800  1
  O  O43  1  0.68193700  0.18541600  0.82699800  1
  O  O44  1  0.11317100  0.83920300  0.87189800  1
  O  O45  1  0.91604800  0.70759900  0.81047700  1
  O  O46  1  0.33518100  0.62010400  0.85653700  1
  O  O47  1  0.60602500  0.88918500  0.78317700  1
loop_
_geom_bond_atom_site_label_1
_geom_bond_atom_site_label_2
_geom_bond_distance
_geom_bond_site_symmetry_2
Li0 O45 2.006810 1_555
Li0 O41 2.025233 1_555
Li0 O11 2.181975 1_555
Li0 O36 2.631848 1_655
Li0 O6 2.693416 1_655
Li0 O1 2.783269 1_655
Li1 O1 1.900920 1_555
Li1 O6 1.982595 1_555
Li1 O9 2.007678 1_555
Li2 O11 1.923822 1_555
Li2 O10 1.995567 1_555
Li2 O45 2.013000 1_555
Li2 O18 2.681127 1_555
Li3 O20 1.915120 1_555
Li3 O4 1.951690 1_555
Li3 O13 2.162526 1_565
Li3 O7 2.593806 1_555
Li4 O6 1.915120 1_555
Li4 O22 1.951690 1_555
Li4 O11 2.162526 1_455
Li4 O19 2.593806 1_555
Li5 O13 1.923822 1_555
Li5 O14 1.995567 1_555
Li5 O27 2.013000 1_555
Li5 O5 2.681127 1_555
Li6 O21 1.900920 1_555
Li6 O20 1.982595 1_555
Li6 O15 2.007678 1_555
Li7 O27 2.006810 1_555
Li7 O26 2.025233 1_555
Li7 O13 2.181975 1_555
Li7 O34 2.631848 1_545
Li7 O20 2.693416 1_545
Li7 O21 2.783269 1_545
Li8 O34 1.894156 1_555
Li8 O21 2.029198 1_555
Li8 O32 2.062311 1_555
Li9 O26 1.934868 1_556
Li9 O43 2.081193 1_555
Li9 O40 2.374559 1_555
Li9 O34 2.414253 1_546
Li10 O41 1.934868 1_554
Li10 O25 2.081193 1_555
Li10 O28 2.374559 1_555
Li10 O36 2.414253 1_654
Li11 O36 1.894156 1_555
Li11 O1 2.029198 1_555
Li11 O38 2.062311 1_555
Mn0 O23 1.919101 1_455
Mn0 O31 1.955327 1_555
Mn0 O18 2.007500 1_455
Mn0 O32 2.140583 1_455
Mn0 O22 2.149624 1_555
Mn0 O35 2.238093 1_555
Mn1 O33 1.966637 1_555
Mn1 O37 1.966637 1_554
Mn1 O40 2.060691 1_554
Mn1 O28 2.060691 1_555
Mn1 O30 2.118218 1_555
Mn1 O46 2.118218 1_554
Mn2 O35 1.904670 1_555
Mn2 O39 1.904670 1_554
Mn2 O30 2.034403 1_555
Mn2 O46 2.034403 1_554
Mn2 O31 2.098741 1_555
Mn2 O44 2.098744 1_554
Mn3 O0 1.919101 1_565
Mn3 O44 1.955321 1_555
Mn3 O5 2.007500 1_565
Mn3 O38 2.140583 1_565
Mn3 O4 2.149624 1_555
Mn3 O39 2.238093 1_555
O0 P2 1.558241 1_555
O1 P1 1.531465 1_555
O2 P11 1.608422 1_555
O2 V1 2.010662 1_555
O2 V2 2.100526 1_555
O3 P1 1.587953 1_655
O3 V1 2.014115 1_555
O3 V0 2.133499 1_555
O4 P0 1.549066 1_555
O5 P1 1.545234 1_555
O6 P0 1.538767 1_555
O7 P0 1.553029 1_555
O7 V2 1.973492 1_555
O8 P2 1.585940 1_555
O8 V1 2.037379 1_555
O8 V0 2.126329 1_555
O9 P2 1.550754 1_555
O9 V2 2.108202 1_555
O10 P4 1.561158 1_555
O10 V0 2.061957 1_565
O11 P3 1.536007 1_555
O12 P3 1.585940 1_555
O12 V1 2.037379 1_555
O12 V3 2.126329 1_555
O13 P2 1.536007 1_555
O14 P1 1.561158 1_555
O14 V3 2.061957 1_455
O15 P3 1.550754 1_555
O15 V2 2.108202 1_555
O16 P4 1.587953 1_545
O16 V1 2.014115 1_555
O16 V3 2.133499 1_555
O17 P6 1.608422 1_555
O17 V1 2.010662 1_555
O17 V2 2.100526 1_555
O18 P4 1.545234 1_555
O19 P5 1.553029 1_555
O19 V2 1.973492 1_555
O20 P5 1.538767 1_555
O21 P4 1.531465 1_555
O22 P5 1.549066 1_555
O23 P3 1.558241 1_555
O24 P8 1.547941 1_555
O24 V3 1.956213 1_455
O25 P6 1.568353 1_555
O25 V3 2.017300 1_555
O26 P6 1.522783 1_555
O27 P7 1.523769 1_555
O28 P6 1.536181 1_555
O29 P7 1.548688 1_555
O29 V3 1.987972 1_455
O30 P5 1.577611 1_555
O31 P7 1.609623 1_565
O32 P10 1.551647 1_554
O33 P8 1.555249 1_555
O34 P9 1.528864 1_554
O35 P8 1.608394 1_555
O36 P8 1.528864 1_556
O37 P9 1.555249 1_555
O38 P7 1.551647 1_556
O39 P9 1.608394 1_555
O40 P11 1.536181 1_555
O41 P11 1.522783 1_555
O42 P10 1.548688 1_555
O42 V0 1.987972 1_565
O43 P11 1.568353 1_555
O43 V0 2.017300 1_555
O44 P10 1.609624 1_455
O45 P10 1.523769 1_555
O46 P0 1.577611 1_555
O47 P9 1.547941 1_555
O47 V0 1.956213 1_565
