# generated using pymatgen
data_V(SO4)2
_symmetry_space_group_name_H-M   'P 1'
_cell_length_a   8.95038000
_cell_length_b   9.08230100
_cell_length_c   13.32034300
_cell_angle_alpha   90.00000000
_cell_angle_beta   90.00000000
_cell_angle_gamma   90.00000000
_symmetry_Int_Tables_number   1
_chemical_formula_structural   V(SO4)2
_chemical_formula_sum   'V8 S16 O64'
_cell_volume   1082.81128487
_cell_formula_units_Z   8
loop_
 _symmetry_equiv_pos_site_id
 _symmetry_equiv_pos_as_xyz
  1  'x, y, z'
loop_
 _atom_site_type_symbol
 _atom_site_label
 _atom_site_symmetry_multiplicity
 _atom_site_fract_x
 _atom_site_fract_y
 _atom_site_fract_z
 _atom_site_occupancy
  V  V0  1  0.89401700  0.85841900  0.12668300  1
  V  V1  1  0.60598300  0.85841900  0.62668300  1
  V  V2  1  0.39401700  0.64158100  0.12668300  1
  V  V3  1  0.10598300  0.64158100  0.62668300  1
  V  V4  1  0.89401700  0.35841900  0.37331700  1
  V  V5  1  0.60598300  0.35841900  0.87331700  1
  V  V6  1  0.39401700  0.14158100  0.37331700  1
  V  V7  1  0.10598300  0.14158100  0.87331700  1
  S  S0  1  0.93536200  0.92730800  0.72028800  1
  S  S1  1  0.56463800  0.92730800  0.22028800  1
  S  S2  1  0.31178200  0.84007900  0.48674100  1
  S  S3  1  0.18821800  0.84007900  0.98674100  1
  S  S4  1  0.81178200  0.65992100  0.48674100  1
  S  S5  1  0.68821800  0.65992100  0.98674100  1
  S  S6  1  0.06463800  0.57269200  0.22028800  1
  S  S7  1  0.43536200  0.57269200  0.72028800  1
  S  S8  1  0.56463800  0.42730900  0.27971200  1
  S  S9  1  0.93536200  0.42730900  0.77971200  1
  S  S10  1  0.31178200  0.34007900  0.01325900  1
  S  S11  1  0.18821800  0.34007900  0.51325900  1
  S  S12  1  0.81178200  0.15992100  0.01325900  1
  S  S13  1  0.68821800  0.15992100  0.51325900  1
  S  S14  1  0.43536200  0.07269200  0.77971200  1
  S  S15  1  0.06463800  0.07269200  0.27971200  1
  O  O0  1  0.30261300  0.00494500  0.47249900  1
  O  O1  1  0.19738700  0.00494500  0.97249900  1
  O  O2  1  0.00850900  0.98075500  0.35765000  1
  O  O3  1  0.49149100  0.98075500  0.85765000  1
  O  O4  1  0.52669600  0.97747500  0.32542900  1
  O  O5  1  0.97330400  0.97747500  0.82542900  1
  O  O6  1  0.76503900  0.91435800  0.71973300  1
  O  O7  1  0.73496100  0.91435800  0.21973300  1
  O  O8  1  0.27591200  0.81002200  0.08262200  1
  O  O9  1  0.22408800  0.81002200  0.58262200  1
  O  O10  1  0.02844900  0.80575400  0.01692100  1
  O  O11  1  0.47155100  0.80575400  0.51692100  1
  O  O12  1  0.99297000  0.76958200  0.71633700  1
  O  O13  1  0.50703000  0.76958200  0.21633700  1
  O  O14  1  0.26554000  0.75743700  0.40181300  1
  O  O15  1  0.23446000  0.75743700  0.90181300  1
  O  O16  1  0.76554000  0.74256300  0.40181300  1
  O  O17  1  0.73446000  0.74256300  0.90181300  1
  O  O18  1  0.00703000  0.73041800  0.21633700  1
  O  O19  1  0.49297000  0.73041800  0.71633700  1
  O  O20  1  0.97155100  0.69424600  0.51692100  1
  O  O21  1  0.52844900  0.69424600  0.01692100  1
  O  O22  1  0.77591200  0.68997800  0.08262200  1
  O  O23  1  0.72408800  0.68997800  0.58262200  1
  O  O24  1  0.23496100  0.58564200  0.21973300  1
  O  O25  1  0.26503900  0.58564200  0.71973300  1
  O  O26  1  0.47330400  0.52252500  0.82542900  1
  O  O27  1  0.02669600  0.52252500  0.32542900  1
  O  O28  1  0.50850900  0.51924500  0.35765000  1
  O  O29  1  0.99149100  0.51924500  0.85765000  1
  O  O30  1  0.80261300  0.49505500  0.47249900  1
  O  O31  1  0.69738700  0.49505500  0.97249900  1
  O  O32  1  0.30261300  0.50494500  0.02750100  1
  O  O33  1  0.19738700  0.50494500  0.52750100  1
  O  O34  1  0.49149100  0.48075500  0.64235000  1
  O  O35  1  0.00850900  0.48075500  0.14235000  1
  O  O36  1  0.52669600  0.47747500  0.17457100  1
  O  O37  1  0.97330400  0.47747500  0.67457100  1
  O  O38  1  0.73496100  0.41435800  0.28026700  1
  O  O39  1  0.76503900  0.41435800  0.78026700  1
  O  O40  1  0.27591200  0.31002200  0.41737800  1
  O  O41  1  0.22408800  0.31002200  0.91737800  1
  O  O42  1  0.47155100  0.30575400  0.98307900  1
  O  O43  1  0.02844900  0.30575400  0.48307900  1
  O  O44  1  0.50703000  0.26958200  0.28366300  1
  O  O45  1  0.99297000  0.26958200  0.78366300  1
  O  O46  1  0.26554000  0.25743700  0.09818700  1
  O  O47  1  0.23446000  0.25743700  0.59818700  1
  O  O48  1  0.76554000  0.24256300  0.09818700  1
  O  O49  1  0.73446000  0.24256300  0.59818700  1
  O  O50  1  0.49297000  0.23041800  0.78366300  1
  O  O51  1  0.00703000  0.23041800  0.28366300  1
  O  O52  1  0.52844900  0.19424600  0.48307900  1
  O  O53  1  0.97155100  0.19424600  0.98307900  1
  O  O54  1  0.77591200  0.18997800  0.41737800  1
  O  O55  1  0.72408800  0.18997800  0.91737800  1
  O  O56  1  0.26503900  0.08564200  0.78026700  1
  O  O57  1  0.23496100  0.08564200  0.28026700  1
  O  O58  1  0.47330400  0.02252500  0.67457100  1
  O  O59  1  0.02669600  0.02252500  0.17457100  1
  O  O60  1  0.99149100  0.01924500  0.64235000  1
  O  O61  1  0.50850900  0.01924500  0.14235000  1
  O  O62  1  0.80261300  0.99505500  0.02750100  1
  O  O63  1  0.69738700  0.99505500  0.52750100  1
loop_
_geom_bond_atom_site_label_1
_geom_bond_atom_site_label_2
_geom_bond_distance
_geom_bond_site_symmetry_2
O0 S2 1.511562 1_545
O0 V6 1.988643 1_555
O1 S3 1.511562 1_545
O1 V7 1.988643 1_555
O2 S15 1.423862 1_565
O3 S14 1.423862 1_565
O4 S1 1.511412 1_555
O4 V6 2.009624 1_565
O5 S0 1.511412 1_555
O5 V7 2.009624 1_665
O6 S0 1.529004 1_555
O6 V1 1.954750 1_555
O7 S1 1.529004 1_555
O7 V0 1.954750 1_555
O8 S3 1.523725 1_554
O8 V2 1.949942 1_555
O9 S2 1.523725 1_555
O9 V3 1.949942 1_555
O10 S3 1.517788 1_554
O10 V0 1.952988 1_455
O11 S2 1.517788 1_555
O11 V1 1.952988 1_555
O12 S0 1.523393 1_555
O12 V3 1.949570 1_655
O13 S1 1.523393 1_555
O13 V2 1.949570 1_555
O14 S2 1.419310 1_555
O15 S3 1.419310 1_555
O16 S4 1.419310 1_555
O17 S5 1.419310 1_555
O18 S6 1.523393 1_555
O18 V0 1.949570 1_455
O19 S7 1.523393 1_555
O19 V1 1.949570 1_555
O20 S4 1.517788 1_555
O20 V3 1.952988 1_655
O21 S5 1.517788 1_554
O21 V2 1.952988 1_555
O22 S5 1.523725 1_554
O22 V0 1.949942 1_555
O23 S4 1.523725 1_555
O23 V1 1.949942 1_555
O24 S6 1.529004 1_555
O24 V2 1.954750 1_555
O25 S7 1.529004 1_555
O25 V3 1.954750 1_555
O26 S7 1.511412 1_555
O26 V5 2.009624 1_555
O27 S6 1.511412 1_555
O27 V4 2.009624 1_455
O28 S8 1.423857 1_555
O29 S9 1.423857 1_555
O30 S4 1.511562 1_555
O30 V4 1.988643 1_555
O31 S5 1.511562 1_555
O31 V5 1.988643 1_555
O32 S10 1.511562 1_555
O32 V2 1.988643 1_555
O33 S11 1.511562 1_555
O33 V3 1.988643 1_555
O34 S7 1.423862 1_555
O35 S6 1.423862 1_555
O36 S8 1.511409 1_555
O36 V2 2.009624 1_555
O37 S9 1.511409 1_555
O37 V3 2.009624 1_655
O38 S8 1.529005 1_555
O38 V4 1.954750 1_555
O39 S9 1.529005 1_555
O39 V5 1.954750 1_555
O40 S11 1.523725 1_555
O40 V6 1.949942 1_555
O41 S10 1.523725 1_556
O41 V7 1.949942 1_555
O42 S10 1.517788 1_556
O42 V5 1.952988 1_555
O43 S11 1.517788 1_555
O43 V4 1.952988 1_455
O44 S8 1.523402 1_555
O44 V6 1.949570 1_555
O45 S9 1.523402 1_555
O45 V7 1.949570 1_655
O46 S10 1.419310 1_555
O47 S11 1.419310 1_555
O48 S12 1.419310 1_555
O49 S13 1.419310 1_555
O50 S14 1.523393 1_555
O50 V5 1.949570 1_555
O51 S15 1.523393 1_555
O51 V4 1.949570 1_455
O52 S13 1.517788 1_555
O52 V6 1.952988 1_555
O53 S12 1.517788 1_556
O53 V7 1.952988 1_655
O54 S13 1.523725 1_555
O54 V4 1.949942 1_555
O55 S12 1.523725 1_556
O55 V5 1.949942 1_555
O56 S14 1.529004 1_555
O56 V7 1.954750 1_555
O57 S15 1.529004 1_555
O57 V6 1.954750 1_555
O58 S14 1.511412 1_555
O58 V1 2.009624 1_545
O59 S15 1.511412 1_555
O59 V0 2.009624 1_445
O60 S0 1.423862 1_545
O61 S1 1.423862 1_545
O62 S12 1.511562 1_565
O62 V0 1.988643 1_555
O63 S13 1.511562 1_565
O63 V1 1.988643 1_555
