# generated using pymatgen
data_Na3In
_symmetry_space_group_name_H-M   'P 1'
_cell_length_a   6.00039940
_cell_length_b   6.00039940
_cell_length_c   6.00039940
_cell_angle_alpha   132.22738979
_cell_angle_beta   132.22738979
_cell_angle_gamma   69.87012567
_symmetry_Int_Tables_number   1
_chemical_formula_structural   Na3In
_chemical_formula_sum   'Na3 In1'
_cell_volume   116.15936285
_cell_formula_units_Z   1
loop_
 _symmetry_equiv_pos_site_id
 _symmetry_equiv_pos_as_xyz
  1  'x, y, z'
loop_
 _atom_site_type_symbol
 _atom_site_label
 _atom_site_symmetry_multiplicity
 _atom_site_fract_x
 _atom_site_fract_y
 _atom_site_fract_z
 _atom_site_occupancy
  Na  Na0  1  0.74999800  0.25000000  0.49999800  1
  Na  Na1  1  0.25000000  0.74999800  0.49999800  1
  Na  Na2  1  0.50000000  0.50000000  0.00000000  1
  In  In0  1  0.00000000  0.00000000  0.00000000  1
loop_
_geom_bond_atom_site_label_1
_geom_bond_atom_site_label_2
_geom_bond_distance
_geom_bond_site_symmetry_2
Na0 Na1 3.436101 1_555
Na0 Na1 3.436115 1_656
Na0 Na1 3.436115 1_544
Na0 Na1 3.436128 1_645
Na0 Na2 3.457293 1_555
Na0 Na2 3.457299 1_556
Na0 Na2 3.457299 1_545
Na0 Na2 3.457306 1_656
Na1 Na2 3.457293 1_555
Na1 Na2 3.457299 1_556
Na1 Na2 3.457299 1_455
Na1 Na2 3.457306 1_566
In0 Na2 3.436115 1_556
In0 Na2 3.436115 1_455
In0 Na2 3.436115 1_545
In0 Na2 3.436115 1_444
In0 Na1 3.457293 1_555
In0 Na0 3.457293 1_555
In0 Na1 3.457299 1_444
In0 Na0 3.457299 1_444
In0 Na0 3.457299 1_455
In0 Na1 3.457299 1_545
In0 Na0 3.457306 1_454
In0 Na1 3.457306 1_544
