# generated using pymatgen
data_LiHo2Tc
_symmetry_space_group_name_H-M   'P 1'
_cell_length_a   4.91318156
_cell_length_b   4.91318156
_cell_length_c   4.91318156
_cell_angle_alpha   60.00000000
_cell_angle_beta   60.00000000
_cell_angle_gamma   60.00000000
_symmetry_Int_Tables_number   1
_chemical_formula_structural   LiHo2Tc
_chemical_formula_sum   'Li1 Ho2 Tc1'
_cell_volume   83.86358862
_cell_formula_units_Z   1
loop_
 _symmetry_equiv_pos_site_id
 _symmetry_equiv_pos_as_xyz
  1  'x, y, z'
loop_
 _atom_site_type_symbol
 _atom_site_label
 _atom_site_symmetry_multiplicity
 _atom_site_fract_x
 _atom_site_fract_y
 _atom_site_fract_z
 _atom_site_occupancy
  Li  Li0  1  0.50000000  0.50000000  0.50000000  1
  Ho  Ho0  1  0.25000000  0.25000000  0.25000000  1
  Ho  Ho1  1  0.75000000  0.75000000  0.75000000  1
  Tc  Tc0  1  0.00000000  0.00000000  0.00000000  1
loop_
_geom_bond_atom_site_label_1
_geom_bond_atom_site_label_2
_geom_bond_distance
_geom_bond_site_symmetry_2
Li0 Tc0 3.474144 1_566
Li0 Tc0 3.474144 1_565
Li0 Tc0 3.474144 1_655
Li0 Tc0 3.474144 1_665
Li0 Tc0 3.474144 1_656
Li0 Tc0 3.474144 1_556
Ho0 Li0 3.008697 1_545
Ho0 Tc0 3.008697 1_565
Ho0 Li0 3.008697 1_555
Ho0 Li0 3.008697 1_554
Ho0 Tc0 3.008697 1_556
Ho0 Tc0 3.008697 1_555
Ho0 Li0 3.008697 1_455
Ho0 Tc0 3.008697 1_655
Ho0 Ho1 3.474144 1_454
Ho0 Ho1 3.474144 1_545
Ho0 Ho1 3.474144 1_544
Ho0 Ho1 3.474144 1_445
Ho0 Ho1 3.474144 1_455
Ho0 Ho1 3.474144 1_554
Ho1 Tc0 3.008697 1_665
Ho1 Tc0 3.008697 1_656
Ho1 Tc0 3.008697 1_666
Ho1 Li0 3.008697 1_556
Ho1 Li0 3.008697 1_555
Ho1 Li0 3.008697 1_565
Ho1 Li0 3.008697 1_655
Ho1 Tc0 3.008697 1_566
