# generated using pymatgen
data_DyCoSi2
_symmetry_space_group_name_H-M   'P 1'
_cell_length_a   3.94600424
_cell_length_b   4.00896333
_cell_length_c   8.33229944
_cell_angle_alpha   103.92003562
_cell_angle_beta   90.00000000
_cell_angle_gamma   90.00000000
_symmetry_Int_Tables_number   1
_chemical_formula_structural   DyCoSi2
_chemical_formula_sum   'Dy2 Co2 Si4'
_cell_volume   127.94086790
_cell_formula_units_Z   2
loop_
 _symmetry_equiv_pos_site_id
 _symmetry_equiv_pos_as_xyz
  1  'x, y, z'
loop_
 _atom_site_type_symbol
 _atom_site_label
 _atom_site_symmetry_multiplicity
 _atom_site_fract_x
 _atom_site_fract_y
 _atom_site_fract_z
 _atom_site_occupancy
  Dy  Dy0  1  0.25000000  0.89161865  0.78323630  1
  Dy  Dy1  1  0.75000000  0.10838135  0.21676370  1
  Co  Co0  1  0.25000000  0.67919086  0.35838073  1
  Co  Co1  1  0.75000000  0.32080914  0.64161927  1
  Si  Si0  1  0.75000000  0.74982403  0.49964806  1
  Si  Si1  1  0.25000000  0.25017597  0.50035194  1
  Si  Si2  1  0.75000000  0.45691532  0.91383165  1
  Si  Si3  1  0.25000000  0.54308468  0.08616835  1
loop_
_geom_bond_atom_site_label_1
_geom_bond_atom_site_label_2
_geom_bond_distance
_geom_bond_site_symmetry_2
Dy0 Si2 3.004369 1_465
Dy0 Si2 3.004369 1_565
Dy0 Si2 3.004374 1_455
Dy0 Si2 3.004374 1_555
Dy0 Si0 3.025409 1_455
Dy0 Si0 3.025409 1_555
Dy0 Si1 3.041746 1_565
Dy0 Si1 3.041749 1_555
Dy0 Si3 3.165503 1_556
Dy0 Si3 3.165504 1_566
Dy1 Si3 3.004369 1_645
Dy1 Si3 3.004369 1_545
Dy1 Si3 3.004374 1_555
Dy1 Si3 3.004374 1_655
Dy1 Si1 3.025409 1_655
Dy1 Si1 3.025409 1_555
Dy1 Si0 3.041746 1_545
Dy1 Si0 3.041749 1_555
Dy1 Si2 3.165503 1_554
Dy1 Si2 3.165504 1_544
Co0 Si3 2.201545 1_555
Co0 Si0 2.279929 1_455
Co0 Si0 2.279929 1_555
Co0 Si1 2.310047 1_565
Co0 Si1 2.310050 1_555
Co0 Dy1 3.036853 1_565
Co0 Dy1 3.036853 1_465
Co0 Dy1 3.036858 1_455
Co0 Dy1 3.036858 1_555
Co1 Si2 2.201545 1_555
Co1 Si1 2.279929 1_655
Co1 Si1 2.279929 1_555
Co1 Si0 2.310047 1_545
Co1 Si0 2.310050 1_555
Co1 Dy0 3.036853 1_645
Co1 Dy0 3.036853 1_545
Co1 Dy0 3.036858 1_655
Co1 Dy0 3.036858 1_555
Si0 Si1 2.812600 1_555
Si0 Si1 2.812600 1_655
Si0 Si1 2.812600 1_565
Si0 Si1 2.812600 1_665
Si2 Si3 2.415655 1_656
Si2 Si3 2.415655 1_556
