# generated using pymatgen
data_Rb(SbSe2)2
_symmetry_space_group_name_H-M   'P 1'
_cell_length_a   6.72206306
_cell_length_b   7.03939377
_cell_length_c   9.71577482
_cell_angle_alpha   80.63418766
_cell_angle_beta   86.31601522
_cell_angle_gamma   75.54559159
_symmetry_Int_Tables_number   1
_chemical_formula_structural   Rb(SbSe2)2
_chemical_formula_sum   'Rb2 Sb4 Se8'
_cell_volume   439.12168406
_cell_formula_units_Z   2
loop_
 _symmetry_equiv_pos_site_id
 _symmetry_equiv_pos_as_xyz
  1  'x, y, z'
loop_
 _atom_site_type_symbol
 _atom_site_label
 _atom_site_symmetry_multiplicity
 _atom_site_fract_x
 _atom_site_fract_y
 _atom_site_fract_z
 _atom_site_occupancy
  Rb  Rb0  1  0.18223917  0.17942256  0.56642980  1
  Rb  Rb1  1  0.81776083  0.82057744  0.43357020  1
  Sb  Sb0  1  0.84442674  0.81450360  0.95448032  1
  Sb  Sb1  1  0.15557326  0.18549640  0.04551968  1
  Sb  Sb2  1  0.42342836  0.60109037  0.16966561  1
  Sb  Sb3  1  0.57657164  0.39890963  0.83033439  1
  Se  Se0  1  0.20985882  0.85205278  0.88930852  1
  Se  Se1  1  0.79014118  0.14794722  0.11069148  1
  Se  Se2  1  0.31843672  0.93413607  0.26960319  1
  Se  Se3  1  0.68156328  0.06586393  0.73039681  1
  Se  Se4  1  0.39882755  0.58668657  0.58647980  1
  Se  Se5  1  0.60117245  0.41331343  0.41352020  1
  Se  Se6  1  0.08682121  0.48368010  0.21935327  1
  Se  Se7  1  0.91317879  0.51631990  0.78064673  1
loop_
_geom_bond_atom_site_label_1
_geom_bond_atom_site_label_2
_geom_bond_distance
_geom_bond_site_symmetry_2
Rb0 Se7 3.494089 1_455
Rb0 Se2 3.553689 1_545
Rb0 Se4 3.560711 1_555
Rb0 Se0 3.562910 1_545
Rb0 Se3 3.657332 1_555
Rb0 Se6 3.689347 1_555
Rb0 Se5 3.718765 1_555
Rb0 Se3 3.839737 1_455
Rb0 Se4 4.038150 1_545
Rb0 Se5 4.112616 1_455
Rb0 Rb1 4.313613 1_445
Rb1 Se6 3.494089 1_655
Rb1 Se3 3.553689 1_565
Rb1 Se5 3.560711 1_555
Rb1 Se1 3.562910 1_565
Rb1 Se2 3.657332 1_555
Rb1 Se7 3.689347 1_555
Rb1 Se4 3.718765 1_555
Rb1 Se2 3.839737 1_655
Rb1 Se5 4.038150 1_565
Rb1 Se4 4.112616 1_655
Sb0 Se0 2.564132 1_655
Sb0 Se3 2.674843 1_565
Sb0 Se7 2.835711 1_555
Sb0 Se1 2.933746 1_566
Sb0 Se6 3.375619 1_656
Sb1 Se1 2.564132 1_455
Sb1 Se2 2.674843 1_545
Sb1 Se6 2.835711 1_555
Sb1 Se0 2.933746 1_544
Sb1 Se7 3.375619 1_454
Sb2 Se6 2.588300 1_555
Sb2 Se2 2.600790 1_555
Sb2 Se5 2.710006 1_555
Sb2 Se0 3.204954 1_554
Sb2 Se1 3.614959 1_555
Sb3 Se7 2.588300 1_555
Sb3 Se3 2.600790 1_555
Sb3 Se4 2.710006 1_555
Sb3 Se1 3.204954 1_556
Sb3 Se0 3.614959 1_555
Se2 Se4 3.585483 1_555
Se3 Se5 3.585483 1_555
Se4 Se5 2.389245 1_555
