# generated using pymatgen
data_Si4Ag10O13
_symmetry_space_group_name_H-M   'P 1'
_cell_length_a   8.11205500
_cell_length_b   9.38491796
_cell_length_c   11.60167623
_cell_angle_alpha   113.40783494
_cell_angle_beta   98.37314326
_cell_angle_gamma   100.57526639
_symmetry_Int_Tables_number   1
_chemical_formula_structural   Si4Ag10O13
_chemical_formula_sum   'Si8 Ag20 O26'
_cell_volume   773.05669140
_cell_formula_units_Z   2
loop_
 _symmetry_equiv_pos_site_id
 _symmetry_equiv_pos_as_xyz
  1  'x, y, z'
loop_
 _atom_site_type_symbol
 _atom_site_label
 _atom_site_symmetry_multiplicity
 _atom_site_fract_x
 _atom_site_fract_y
 _atom_site_fract_z
 _atom_site_occupancy
  Si  Si0  1  0.77886200  0.90987800  0.75542700  1
  Si  Si1  1  0.22113800  0.09012200  0.24457300  1
  Si  Si2  1  0.26795700  0.42936900  0.24502300  1
  Si  Si3  1  0.55730000  0.98379600  0.25032400  1
  Si  Si4  1  0.91665800  0.52096900  0.25132200  1
  Si  Si5  1  0.73204300  0.57063100  0.75497700  1
  Si  Si6  1  0.44270000  0.01620400  0.74967600  1
  Si  Si7  1  0.08334200  0.47903100  0.74867800  1
  Ag  Ag0  1  0.11075400  0.31048600  0.64163900  1
  Ag  Ag1  1  0.15912800  0.57596100  0.91663600  1
  Ag  Ag2  1  0.57663000  0.80204800  0.16101100  1
  Ag  Ag3  1  0.33406600  0.50606400  0.43272800  1
  Ag  Ag4  1  0.21382200  0.03098100  0.07014600  1
  Ag  Ag5  1  0.15082700  0.87424600  0.92860300  1
  Ag  Ag6  1  0.32020000  0.93995800  0.56951300  1
  Ag  Ag7  1  0.84917300  0.12575400  0.07139700  1
  Ag  Ag8  1  0.84087200  0.42403900  0.08336400  1
  Ag  Ag9  1  0.67980000  0.06004200  0.43048700  1
  Ag  Ag10  1  0.78617800  0.96901900  0.92985400  1
  Ag  Ag11  1  0.98599400  0.96026100  0.42905000  1
  Ag  Ag12  1  0.56093200  0.56380100  0.08398800  1
  Ag  Ag13  1  0.43906800  0.43619900  0.91601200  1
  Ag  Ag14  1  0.63293400  0.34121400  0.44799100  1
  Ag  Ag15  1  0.42337000  0.19795200  0.83898900  1
  Ag  Ag16  1  0.66593400  0.49393600  0.56727200  1
  Ag  Ag17  1  0.88924600  0.68951400  0.35836100  1
  Ag  Ag18  1  0.01400600  0.03973900  0.57095000  1
  Ag  Ag19  1  0.36706600  0.65878600  0.55200900  1
  O  O0  1  0.59473500  0.75007000  0.61322500  1
  O  O1  1  0.62005000  0.20327800  0.11444900  1
  O  O2  1  0.72455000  0.82780800  0.37707400  1
  O  O3  1  0.35635300  0.64674600  0.12341400  1
  O  O4  1  0.83066900  0.73244700  0.76345400  1
  O  O5  1  0.88385800  0.79883100  0.89020300  1
  O  O6  1  0.18583300  0.21003200  0.87932100  1
  O  O7  1  0.27545000  0.17219200  0.62292600  1
  O  O8  1  0.64364700  0.35325400  0.87658600  1
  O  O9  1  0.40526500  0.24993000  0.38677500  1
  O  O10  1  0.43332600  0.10129300  0.25489700  1
  O  O11  1  0.16933100  0.26755300  0.23654600  1
  O  O12  1  0.11614200  0.20116900  0.10979700  1
  O  O13  1  0.81416700  0.78996800  0.12067900  1
  O  O14  1  0.17464100  0.82036300  0.37313700  1
  O  O15  1  0.82535900  0.17963700  0.62686300  1
  O  O16  1  0.18342100  0.66903600  0.73465200  1
  O  O17  1  0.56173800  0.18861400  0.74388400  1
  O  O18  1  0.93356100  0.42924000  0.38038700  1
  O  O19  1  0.11286800  0.54516200  0.23175800  1
  O  O20  1  0.88713200  0.45483800  0.76824200  1
  O  O21  1  0.37995000  0.79672200  0.88555100  1
  O  O22  1  0.06643900  0.57076000  0.61961300  1
  O  O23  1  0.81657900  0.33096400  0.26534800  1
  O  O24  1  0.43826200  0.81138600  0.25611600  1
  O  O25  1  0.56667400  0.89870700  0.74510300  1
loop_
_geom_bond_atom_site_label_1
_geom_bond_atom_site_label_2
_geom_bond_distance
_geom_bond_site_symmetry_2
Ag0 Si7 1.656026 1_555
Ag0 O7 2.003407 1_555
Ag0 Ag18 2.273709 1_555
Ag0 O15 2.360270 1_455
Ag1 Si7 1.743535 1_555
Ag1 O20 2.354285 1_455
Ag1 O21 2.655355 1_555
Ag2 Si3 1.657964 1_555
Ag2 O24 1.674809 1_555
Ag2 O3 1.954350 1_555
Ag2 O13 2.060442 1_555
Ag2 O2 2.513526 1_555
Ag3 Si2 1.954686 1_555
Ag4 Ag5 1.637652 1_544
Ag4 O12 1.837786 1_555
Ag4 Si1 1.862050 1_555
Ag5 O5 2.072531 1_455
Ag5 O21 2.170581 1_555
Ag6 Si6 1.952979 1_565
Ag6 O14 2.131413 1_555
Ag6 O7 2.132793 1_565
Ag7 O12 2.072531 1_655
Ag7 O1 2.170581 1_555
Ag8 Si4 1.743535 1_555
Ag8 O19 2.354285 1_655
Ag8 O1 2.655355 1_555
Ag9 Si3 1.952979 1_545
Ag9 O15 2.131413 1_555
Ag9 O2 2.132793 1_545
Ag10 Ag7 1.637652 1_566
Ag10 O5 1.837786 1_555
Ag10 Si0 1.862050 1_555
Ag11 Ag18 1.473567 1_665
Ag11 O2 2.114498 1_555
Ag11 O14 2.199168 1_655
Ag11 Ag17 2.273709 1_555
Ag12 Ag13 1.832838 1_554
Ag12 O3 1.995408 1_555
Ag12 Ag2 2.022112 1_555
Ag12 O13 2.516625 1_555
Ag13 O8 1.995408 1_555
Ag13 Ag15 2.022112 1_555
Ag13 O6 2.516625 1_555
Ag14 Ag16 1.488742 1_555
Ag14 O9 1.789704 1_555
Ag14 Ag9 2.667182 1_555
Ag15 Si6 1.657964 1_555
Ag15 O17 1.674809 1_555
Ag15 O8 1.954350 1_555
Ag15 O6 2.060442 1_555
Ag15 O7 2.513526 1_555
Ag16 Si5 1.954686 1_555
Ag17 Si4 1.656026 1_555
Ag17 O2 2.003407 1_555
Ag17 O14 2.360270 1_655
Ag18 O7 2.114498 1_555
Ag18 O15 2.199168 1_455
Ag19 Ag3 1.488742 1_555
Ag19 O0 1.789704 1_555
Ag19 Ag6 2.667182 1_555
O0 O25 1.691393 1_555
O0 Si0 1.922559 1_555
O1 O23 1.965084 1_555
O1 O10 2.700243 1_555
O2 O24 2.476719 1_555
O4 O5 1.313513 1_555
O4 Si5 1.538977 1_555
O4 Si0 1.823947 1_555
O5 Si5 2.089059 1_555
O9 Si1 1.922559 1_555
O10 Si3 1.614394 1_545
O10 Si1 1.688753 1_555
O10 O9 1.691393 1_555
O11 O12 1.313513 1_555
O11 Si2 1.538977 1_555
O11 Si1 1.823947 1_555
O12 Si2 2.089059 1_555
O12 O6 2.841834 1_554
O13 O5 2.841834 1_554
O14 O19 2.351946 1_555
O14 O24 2.691526 1_555
O15 O20 2.351946 1_555
O15 O17 2.691526 1_555
O16 O22 1.365391 1_555
O16 Si7 1.898148 1_555
O16 O21 1.965084 1_555
O17 O8 1.623062 1_555
O17 Si6 1.756946 1_555
O17 O7 2.476719 1_555
O18 O23 1.365391 1_555
O18 Si4 2.002436 1_555
O19 Si4 1.627877 1_455
O19 Si2 1.834592 1_555
O20 Si7 1.627877 1_655
O20 Si5 1.834592 1_555
O21 O25 2.700243 1_555
O22 Si7 2.002436 1_555
O23 Si4 1.898148 1_555
O24 O3 1.623062 1_555
O24 Si3 1.756946 1_555
O25 Si6 1.614394 1_565
O25 Si0 1.688753 1_555
