# generated using pymatgen
data_HoGa3
_symmetry_space_group_name_H-M   'P 1'
_cell_length_a   12.18504118
_cell_length_b   12.18504118
_cell_length_c   12.18504098
_cell_angle_alpha   28.88828151
_cell_angle_beta   28.88828151
_cell_angle_gamma   28.88828290
_symmetry_Int_Tables_number   1
_chemical_formula_structural   HoGa3
_chemical_formula_sum   'Ho5 Ga15'
_cell_volume   373.40885043
_cell_formula_units_Z   5
loop_
 _symmetry_equiv_pos_site_id
 _symmetry_equiv_pos_as_xyz
  1  'x, y, z'
loop_
 _atom_site_type_symbol
 _atom_site_label
 _atom_site_symmetry_multiplicity
 _atom_site_fract_x
 _atom_site_fract_y
 _atom_site_fract_z
 _atom_site_occupancy
  Ho  Ho0  1  0.12956446  0.12956446  0.12956446  1
  Ho  Ho1  1  0.87043554  0.87043554  0.87043554  1
  Ho  Ho2  1  0.40030567  0.40030567  0.40030567  1
  Ho  Ho3  1  0.59969433  0.59969433  0.59969433  1
  Ho  Ho4  1  0.00000000  -0.00000000  -0.00000000  1
  Ga  Ga0  1  0.44221297  0.87814287  0.87814287  1
  Ga  Ga1  1  0.87814287  0.87814287  0.44221297  1
  Ga  Ga2  1  0.87814287  0.44221297  0.87814287  1
  Ga  Ga3  1  0.12185713  0.55778703  0.12185713  1
  Ga  Ga4  1  0.12185713  0.12185713  0.55778703  1
  Ga  Ga5  1  0.55778703  0.12185713  0.12185713  1
  Ga  Ga6  1  0.13072527  0.63596907  0.63596907  1
  Ga  Ga7  1  0.63596907  0.63596907  0.13072527  1
  Ga  Ga8  1  0.63596907  0.13072527  0.63596907  1
  Ga  Ga9  1  0.36403093  0.86927473  0.36403093  1
  Ga  Ga10  1  0.36403093  0.36403093  0.86927473  1
  Ga  Ga11  1  0.86927473  0.36403093  0.36403093  1
  Ga  Ga12  1  0.50000000  0.50000000  -0.00000000  1
  Ga  Ga13  1  0.50000000  -0.00000000  0.50000000  1
  Ga  Ga14  1  0.00000000  0.50000000  0.50000000  1
loop_
_geom_bond_atom_site_label_1
_geom_bond_atom_site_label_2
_geom_bond_distance
_geom_bond_site_symmetry_2
Ga0 Ga1 2.649920 1_555
Ga0 Ga2 2.649920 1_555
Ga0 Ga13 2.846074 1_565
Ga0 Ga12 2.846074 1_556
Ga0 Ga7 2.893905 1_556
Ga0 Ga8 2.893905 1_565
Ga0 Ho0 2.973954 1_566
Ga0 Ho4 3.046946 1_566
Ga0 Ho2 3.047825 1_556
Ga0 Ho2 3.047825 1_565
Ga0 Ga1 3.428856 1_456
Ga0 Ga2 3.428856 1_465
Ga1 Ga2 2.649920 1_555
Ga1 Ga14 2.846074 1_655
Ga1 Ga13 2.846074 1_565
Ga1 Ga6 2.893905 1_655
Ga1 Ga8 2.893905 1_565
Ga1 Ho0 2.973954 1_665
Ga1 Ho4 3.046946 1_665
Ga1 Ho2 3.047825 1_565
Ga1 Ho2 3.047825 1_655
Ga1 Ga2 3.428856 1_564
Ga2 Ga7 2.893905 1_556
Ga2 Ga6 2.893905 1_655
Ga2 Ho0 2.973954 1_656
Ga2 Ho4 3.046946 1_656
Ga2 Ho2 3.047825 1_556
Ga2 Ho2 3.047825 1_655
Ga3 Ga4 2.649920 1_555
Ga3 Ga5 2.649920 1_555
Ga3 Ho1 2.973954 1_454
Ga3 Ho4 3.046946 1_565
Ga3 Ho3 3.047825 1_554
Ga3 Ho3 3.047825 1_455
Ga3 Ga4 3.428856 1_564
Ga3 Ga5 3.428856 1_465
Ga4 Ga5 2.649920 1_555
Ga4 Ga9 2.893905 1_545
Ga4 Ho1 2.973954 1_445
Ga4 Ho4 3.046946 1_556
Ga4 Ho3 3.047825 1_545
Ga4 Ho3 3.047825 1_455
Ga4 Ga5 3.428856 1_456
Ga5 Ga9 2.893905 1_545
Ga5 Ho1 2.973954 1_544
Ga5 Ho4 3.046946 1_655
Ga5 Ho3 3.047825 1_554
Ga5 Ho3 3.047825 1_545
Ga6 Ga9 2.881717 1_555
Ga6 Ho2 2.947214 1_555
Ga6 Ho1 2.990364 1_455
Ga6 Ga7 3.007512 1_456
Ga6 Ga8 3.007512 1_465
Ga6 Ho0 3.043812 1_565
Ga6 Ho0 3.043812 1_556
Ga6 Ga7 3.071264 1_555
Ga6 Ga8 3.071264 1_555
Ga7 Ga9 2.881717 1_555
Ga7 Ho2 2.947214 1_555
Ga7 Ho1 2.990364 1_554
Ga7 Ga8 3.007512 1_564
Ga7 Ho0 3.043812 1_655
Ga7 Ho0 3.043812 1_565
Ga7 Ga8 3.071264 1_555
Ga8 Ho2 2.947214 1_555
Ga8 Ho1 2.990364 1_545
Ga8 Ho0 3.043812 1_655
Ga8 Ho0 3.043812 1_556
Ga9 Ho3 2.947214 1_555
Ga9 Ho0 2.990364 1_565
Ga9 Ho1 3.043812 1_455
Ga9 Ho1 3.043812 1_554
Ga10 Ga8 2.881717 1_555
Ga10 Ga6 2.881717 1_555
Ga10 Ga5 2.893905 1_556
Ga10 Ga3 2.893905 1_556
Ga10 Ho3 2.947214 1_555
Ga10 Ho0 2.990364 1_556
Ga10 Ga9 3.007512 1_546
Ga10 Ga11 3.007512 1_456
Ga10 Ho1 3.043812 1_455
Ga10 Ho1 3.043812 1_545
Ga10 Ga9 3.071264 1_555
Ga10 Ga11 3.071264 1_555
Ga11 Ga8 2.881717 1_555
Ga11 Ga7 2.881717 1_555
Ga11 Ga3 2.893905 1_655
Ga11 Ga4 2.893905 1_655
Ga11 Ho3 2.947214 1_555
Ga11 Ho0 2.990364 1_655
Ga11 Ga9 3.007512 1_645
Ga11 Ho1 3.043812 1_545
Ga11 Ho1 3.043812 1_554
Ga11 Ga9 3.071264 1_555
Ga12 Ga5 2.846074 1_555
Ga12 Ga3 2.846074 1_555
Ga12 Ga2 2.846074 1_554
Ga12 Ho3 2.928425 1_554
Ga12 Ho2 2.928425 1_555
Ga12 Ga14 3.039388 1_654
Ga12 Ga13 3.039388 1_564
Ga12 Ga14 3.039388 1_555
Ga12 Ga13 3.039388 1_555
Ga12 Ho4 3.039388 1_655
Ga12 Ho4 3.039388 1_565
Ga13 Ga5 2.846074 1_555
Ga13 Ga4 2.846074 1_555
Ga13 Ho3 2.928425 1_545
Ga13 Ho2 2.928425 1_555
Ga13 Ho4 3.039388 1_556
Ga13 Ho4 3.039388 1_655
Ga13 Ga14 3.039388 1_555
Ga13 Ga14 3.039388 1_645
Ga14 Ga2 2.846074 1_455
Ga14 Ga3 2.846074 1_555
Ga14 Ga4 2.846074 1_555
Ga14 Ho3 2.928425 1_455
Ga14 Ho2 2.928425 1_555
Ga14 Ho4 3.039388 1_556
Ga14 Ho4 3.039388 1_565
