# generated using pymatgen
data_LuAlAg2
_symmetry_space_group_name_H-M   'P 1'
_cell_length_a   4.72659400
_cell_length_b   4.72659400
_cell_length_c   4.72659400
_cell_angle_alpha   60.00000000
_cell_angle_beta   60.00000000
_cell_angle_gamma   60.00000000
_symmetry_Int_Tables_number   1
_chemical_formula_structural   LuAlAg2
_chemical_formula_sum   'Lu1 Al1 Ag2'
_cell_volume   74.66720597
_cell_formula_units_Z   1
loop_
 _symmetry_equiv_pos_site_id
 _symmetry_equiv_pos_as_xyz
  1  'x, y, z'
loop_
 _atom_site_type_symbol
 _atom_site_label
 _atom_site_symmetry_multiplicity
 _atom_site_fract_x
 _atom_site_fract_y
 _atom_site_fract_z
 _atom_site_occupancy
  Lu  Lu0  1  0.74999900  0.74999900  0.74999900  1
  Al  Al0  1  0.25000100  0.25000100  0.25000100  1
  Ag  Ag0  1  0.50000000  0.50000000  0.50000000  1
  Ag  Ag1  1  0.00000000  0.00000000  -0.00000000  1
loop_
_geom_bond_atom_site_label_1
_geom_bond_atom_site_label_2
_geom_bond_distance
_geom_bond_site_symmetry_2
Al0 Lu0 3.342193 1_554
Al0 Lu0 3.342193 1_545
Al0 Lu0 3.342193 1_455
Al0 Lu0 3.342220 1_445
Al0 Lu0 3.342220 1_544
Al0 Lu0 3.342220 1_454
Ag0 Lu0 2.894424 1_555
Ag0 Al0 2.894424 1_555
Ag0 Al0 2.894440 1_556
Ag0 Lu0 2.894440 1_554
Ag0 Al0 2.894440 1_565
Ag0 Lu0 2.894440 1_545
Ag0 Al0 2.894440 1_655
Ag0 Lu0 2.894440 1_455
Ag0 Ag1 3.342207 1_566
Ag0 Ag1 3.342207 1_565
Ag0 Ag1 3.342207 1_655
Ag0 Ag1 3.342207 1_656
Ag0 Ag1 3.342207 1_665
Ag0 Ag1 3.342207 1_556
Ag1 Lu0 2.894432 1_544
Ag1 Lu0 2.894432 1_445
Ag1 Lu0 2.894432 1_454
Ag1 Al0 2.894432 1_455
Ag1 Al0 2.894432 1_554
Ag1 Al0 2.894432 1_545
Ag1 Al0 2.894447 1_555
Ag1 Lu0 2.894447 1_444
