# generated using pymatgen
data_AlAgO2
_symmetry_space_group_name_H-M   'P 1'
_cell_length_a   5.75572858
_cell_length_b   5.75573019
_cell_length_c   24.49861552
_cell_angle_alpha   90.00000000
_cell_angle_beta   90.00000000
_cell_angle_gamma   120.00000210
_symmetry_Int_Tables_number   1
_chemical_formula_structural   AlAgO2
_chemical_formula_sum   'Al16 Ag16 O32'
_cell_volume   702.86658684
_cell_formula_units_Z   16
loop_
 _symmetry_equiv_pos_site_id
 _symmetry_equiv_pos_as_xyz
  1  'x, y, z'
loop_
 _atom_site_type_symbol
 _atom_site_label
 _atom_site_symmetry_multiplicity
 _atom_site_fract_x
 _atom_site_fract_y
 _atom_site_fract_z
 _atom_site_occupancy
  Al  Al0_0  1  0.00000000  0.00000000  0.00000000  1
  Al  Al0_1  1  0.00000000  0.00000000  0.50000000  1
  Al  Al0_2  1  0.00000000  0.50000000  0.00000000  1
  Al  Al0_3  1  0.00000000  0.50000000  0.50000000  1
  Al  Al0_4  1  0.50000000  0.00000000  0.00000000  1
  Al  Al0_5  1  0.50000000  0.00000000  0.50000000  1
  Al  Al0_6  1  0.50000000  0.50000000  0.00000000  1
  Al  Al0_7  1  0.50000000  0.50000000  0.50000000  1
  Al  Al1_0  1  0.00000000  0.00000000  0.25000000  1
  Al  Al1_1  1  0.00000000  0.00000000  0.75000000  1
  Al  Al1_2  1  0.00000000  0.50000000  0.25000000  1
  Al  Al1_3  1  0.00000000  0.50000000  0.75000000  1
  Al  Al1_4  1  0.50000000  0.00000000  0.25000000  1
  Al  Al1_5  1  0.50000000  0.00000000  0.75000000  1
  Al  Al1_6  1  0.50000000  0.50000000  0.25000000  1
  Al  Al1_7  1  0.50000000  0.50000000  0.75000000  1
  Ag  Ag0_0  1  0.33333350  0.16666650  0.37500000  1
  Ag  Ag0_1  1  0.33333350  0.16666650  0.87500000  1
  Ag  Ag0_2  1  0.33333350  0.66666650  0.37500000  1
  Ag  Ag0_3  1  0.33333350  0.66666650  0.87500000  1
  Ag  Ag0_4  1  0.83333350  0.16666650  0.37500000  1
  Ag  Ag0_5  1  0.83333350  0.16666650  0.87500000  1
  Ag  Ag0_6  1  0.83333350  0.66666650  0.37500000  1
  Ag  Ag0_7  1  0.83333350  0.66666650  0.87500000  1
  Ag  Ag1_0  1  0.16666650  0.33333350  0.12500000  1
  Ag  Ag1_1  1  0.16666650  0.33333350  0.62500000  1
  Ag  Ag1_2  1  0.16666650  0.83333350  0.12500000  1
  Ag  Ag1_3  1  0.16666650  0.83333350  0.62500000  1
  Ag  Ag1_4  1  0.66666650  0.33333350  0.12500000  1
  Ag  Ag1_5  1  0.66666650  0.33333350  0.62500000  1
  Ag  Ag1_6  1  0.66666650  0.83333350  0.12500000  1
  Ag  Ag1_7  1  0.66666650  0.83333350  0.62500000  1
  O  O0_0  1  0.16666650  0.33333350  0.21108941  1
  O  O0_1  1  0.16666650  0.33333350  0.71108941  1
  O  O0_2  1  0.16666650  0.83333350  0.21108941  1
  O  O0_3  1  0.16666650  0.83333350  0.71108941  1
  O  O0_4  1  0.66666650  0.33333350  0.21108941  1
  O  O0_5  1  0.66666650  0.33333350  0.71108941  1
  O  O0_6  1  0.66666650  0.83333350  0.21108941  1
  O  O0_7  1  0.66666650  0.83333350  0.71108941  1
  O  O1_0  1  0.33333350  0.16666650  0.46108941  1
  O  O1_1  1  0.33333350  0.16666650  0.96108942  1
  O  O1_2  1  0.33333350  0.66666650  0.46108941  1
  O  O1_3  1  0.33333350  0.66666650  0.96108942  1
  O  O1_4  1  0.83333350  0.16666650  0.46108941  1
  O  O1_5  1  0.83333350  0.16666650  0.96108942  1
  O  O1_6  1  0.83333350  0.66666650  0.46108941  1
  O  O1_7  1  0.83333350  0.66666650  0.96108942  1
  O  O2_0  1  0.16666650  0.33333350  0.03891058  1
  O  O2_1  1  0.16666650  0.33333350  0.53891058  1
  O  O2_2  1  0.16666650  0.83333350  0.03891058  1
  O  O2_3  1  0.16666650  0.83333350  0.53891058  1
  O  O2_4  1  0.66666650  0.33333350  0.03891058  1
  O  O2_5  1  0.66666650  0.33333350  0.53891058  1
  O  O2_6  1  0.66666650  0.83333350  0.03891058  1
  O  O2_7  1  0.66666650  0.83333350  0.53891058  1
  O  O3_0  1  0.33333350  0.16666650  0.28891058  1
  O  O3_1  1  0.33333350  0.16666650  0.78891059  1
  O  O3_2  1  0.33333350  0.66666650  0.28891058  1
  O  O3_3  1  0.33333350  0.66666650  0.78891059  1
  O  O3_4  1  0.83333350  0.16666650  0.28891058  1
  O  O3_5  1  0.83333350  0.16666650  0.78891059  1
  O  O3_6  1  0.83333350  0.66666650  0.28891058  1
  O  O3_7  1  0.83333350  0.66666650  0.78891059  1
loop_
_geom_bond_atom_site_label_1
_geom_bond_atom_site_label_2
_geom_bond_distance
_geom_bond_site_symmetry_2
Al0_0 O2_2 1.915566 1_545
Al0_0 O1_5 1.915566 1_454
Al0_0 O2_6 1.915568 1_445
Al0_0 O1_1 1.915568 1_554
Al0_0 O1_7 1.915568 1_444
Al0_0 O2_0 1.915568 1_555
Al0_1 O2_3 1.915566 1_545
Al0_1 O1_4 1.915566 1_455
Al0_1 O2_7 1.915568 1_445
Al0_1 O1_0 1.915568 1_555
Al0_1 O2_1 1.915568 1_555
Al0_1 O1_6 1.915568 1_445
Al0_2 O2_0 1.915566 1_555
Al0_2 O1_7 1.915566 1_454
Al0_2 O2_4 1.915568 1_455
Al0_2 O1_3 1.915568 1_554
Al0_2 O1_5 1.915568 1_454
Al0_2 O2_2 1.915568 1_555
Al0_3 O2_1 1.915566 1_555
Al0_3 O1_6 1.915566 1_455
Al0_3 O2_5 1.915568 1_455
Al0_3 O1_2 1.915568 1_555
Al0_3 O2_3 1.915568 1_555
Al0_3 O1_4 1.915568 1_455
Al0_4 O1_1 1.915566 1_554
Al0_4 O2_6 1.915566 1_545
Al0_4 O1_5 1.915568 1_554
Al0_4 O2_2 1.915568 1_545
Al0_4 O1_3 1.915568 1_544
Al0_4 O2_4 1.915568 1_555
Al0_5 O2_7 1.915566 1_545
Al0_5 O1_0 1.915566 1_555
Al0_5 O2_3 1.915568 1_545
Al0_5 O1_4 1.915568 1_555
Al0_5 O2_5 1.915568 1_555
Al0_5 O1_2 1.915568 1_545
Al0_6 O2_4 1.915566 1_555
Al0_6 O1_3 1.915566 1_554
Al0_6 O2_0 1.915568 1_555
Al0_6 O1_7 1.915568 1_554
Al0_6 O1_1 1.915568 1_554
Al0_6 O2_6 1.915568 1_555
Al0_7 O2_5 1.915566 1_555
Al0_7 O1_2 1.915566 1_555
Al0_7 O2_1 1.915568 1_555
Al0_7 O1_6 1.915568 1_555
Al0_7 O2_7 1.915568 1_555
Al0_7 O1_0 1.915568 1_555
Al1_0 O0_2 1.915566 1_545
Al1_0 O3_4 1.915566 1_455
Al1_0 O3_0 1.915568 1_555
Al1_0 O0_6 1.915568 1_445
Al1_0 O3_6 1.915568 1_445
Al1_0 O0_0 1.915568 1_555
Al1_1 O0_3 1.915566 1_545
Al1_1 O3_5 1.915566 1_455
Al1_1 O0_7 1.915568 1_445
Al1_1 O3_1 1.915568 1_555
Al1_1 O3_7 1.915568 1_445
Al1_1 O0_1 1.915568 1_555
Al1_2 O0_0 1.915566 1_555
Al1_2 O3_6 1.915566 1_455
Al1_2 O0_4 1.915568 1_455
Al1_2 O3_2 1.915568 1_555
Al1_2 O3_4 1.915568 1_455
Al1_2 O0_2 1.915568 1_555
Al1_3 O0_1 1.915566 1_555
Al1_3 O3_7 1.915566 1_455
Al1_3 O0_5 1.915568 1_455
Al1_3 O3_3 1.915568 1_555
Al1_3 O3_5 1.915568 1_455
Al1_3 O0_3 1.915568 1_555
Al1_4 O3_0 1.915566 1_555
Al1_4 O0_6 1.915566 1_545
Al1_4 O3_4 1.915568 1_555
Al1_4 O0_2 1.915568 1_545
Al1_4 O3_2 1.915568 1_545
Al1_4 O0_4 1.915568 1_555
Al1_5 O0_7 1.915566 1_545
Al1_5 O3_1 1.915566 1_555
Al1_5 O0_3 1.915568 1_545
Al1_5 O3_5 1.915568 1_555
Al1_5 O3_3 1.915568 1_545
Al1_5 O0_5 1.915568 1_555
Al1_6 O3_2 1.915566 1_555
Al1_6 O0_4 1.915566 1_555
Al1_6 O0_0 1.915568 1_555
Al1_6 O3_6 1.915568 1_555
Al1_6 O3_0 1.915568 1_555
Al1_6 O0_6 1.915568 1_555
Al1_7 O3_3 1.915566 1_555
Al1_7 O0_5 1.915566 1_555
Al1_7 O0_1 1.915568 1_555
Al1_7 O3_7 1.915568 1_555
Al1_7 O3_1 1.915568 1_555
Al1_7 O0_7 1.915568 1_555
Ag0_0 O1_0 2.109071 1_555
Ag0_0 O3_0 2.109071 1_555
Ag0_0 Ag0_4 2.877864 1_555
Ag0_0 Ag0_4 2.877864 1_455
Ag0_0 Ag0_6 2.877865 1_445
Ag0_0 Ag0_6 2.877865 1_555
Ag0_0 Ag0_2 2.877865 1_545
Ag0_0 Ag0_2 2.877865 1_555
Ag0_1 O3_1 2.109071 1_555
Ag0_1 O1_1 2.109071 1_555
Ag0_1 Ag0_5 2.877864 1_555
Ag0_1 Ag0_5 2.877864 1_455
Ag0_1 Ag0_7 2.877865 1_445
Ag0_1 Ag0_7 2.877865 1_555
Ag0_1 Ag0_3 2.877865 1_555
Ag0_1 Ag0_3 2.877865 1_545
Ag0_2 O1_2 2.109071 1_555
Ag0_2 O3_2 2.109071 1_555
Ag0_2 Ag0_6 2.877864 1_455
Ag0_2 Ag0_6 2.877864 1_555
Ag0_2 Ag0_4 2.877865 1_455
Ag0_2 Ag0_4 2.877865 1_565
Ag0_3 O3_3 2.109071 1_555
Ag0_3 O1_3 2.109071 1_555
Ag0_3 Ag0_7 2.877864 1_455
Ag0_3 Ag0_7 2.877864 1_555
Ag0_3 Ag0_5 2.877865 1_455
Ag0_3 Ag0_5 2.877865 1_565
Ag0_4 O1_4 2.109071 1_555
Ag0_4 O3_4 2.109071 1_555
Ag0_4 Ag0_6 2.877865 1_555
Ag0_4 Ag0_6 2.877865 1_545
Ag0_5 O3_5 2.109071 1_555
Ag0_5 O1_5 2.109071 1_555
Ag0_5 Ag0_7 2.877865 1_555
Ag0_5 Ag0_7 2.877865 1_545
Ag0_6 O1_6 2.109071 1_555
Ag0_6 O3_6 2.109071 1_555
Ag0_7 O3_7 2.109071 1_555
Ag0_7 O1_7 2.109071 1_555
Ag1_0 O0_0 2.109071 1_555
Ag1_0 O2_0 2.109071 1_555
Ag1_0 Ag1_4 2.877864 1_555
Ag1_0 Ag1_4 2.877864 1_455
Ag1_0 Ag1_6 2.877865 1_445
Ag1_0 Ag1_6 2.877865 1_555
Ag1_0 Ag1_2 2.877865 1_545
Ag1_0 Ag1_2 2.877865 1_555
Ag1_1 O0_1 2.109071 1_555
Ag1_1 O2_1 2.109071 1_555
Ag1_1 Ag1_5 2.877864 1_555
Ag1_1 Ag1_5 2.877864 1_455
Ag1_1 Ag1_7 2.877865 1_445
Ag1_1 Ag1_7 2.877865 1_555
Ag1_1 Ag1_3 2.877865 1_555
Ag1_1 Ag1_3 2.877865 1_545
Ag1_2 O0_2 2.109071 1_555
Ag1_2 O2_2 2.109071 1_555
Ag1_2 Ag1_6 2.877864 1_555
Ag1_2 Ag1_6 2.877864 1_455
Ag1_2 Ag1_4 2.877865 1_455
Ag1_2 Ag1_4 2.877865 1_565
Ag1_3 O0_3 2.109071 1_555
Ag1_3 O2_3 2.109071 1_555
Ag1_3 Ag1_7 2.877864 1_455
Ag1_3 Ag1_7 2.877864 1_555
Ag1_3 Ag1_5 2.877865 1_455
Ag1_3 Ag1_5 2.877865 1_565
Ag1_4 O0_4 2.109071 1_555
Ag1_4 O2_4 2.109071 1_555
Ag1_4 Ag1_6 2.877865 1_555
Ag1_4 Ag1_6 2.877865 1_545
Ag1_5 O0_5 2.109071 1_555
Ag1_5 O2_5 2.109071 1_555
Ag1_5 Ag1_7 2.877865 1_545
Ag1_5 Ag1_7 2.877865 1_555
Ag1_6 O0_6 2.109071 1_555
Ag1_6 O2_6 2.109071 1_555
Ag1_7 O0_7 2.109071 1_555
Ag1_7 O2_7 2.109071 1_555
