# generated using pymatgen
data_TiN
_symmetry_space_group_name_H-M   'P 1'
_cell_length_a   5.27860800
_cell_length_b   5.27860800
_cell_length_c   5.27860800
_cell_angle_alpha   90.00000000
_cell_angle_beta   90.00000000
_cell_angle_gamma   90.00000000
_symmetry_Int_Tables_number   1
_chemical_formula_structural   TiN
_chemical_formula_sum   'Ti8 N8'
_cell_volume   147.08156249
_cell_formula_units_Z   8
loop_
 _symmetry_equiv_pos_site_id
 _symmetry_equiv_pos_as_xyz
  1  'x, y, z'
loop_
 _atom_site_type_symbol
 _atom_site_label
 _atom_site_symmetry_multiplicity
 _atom_site_fract_x
 _atom_site_fract_y
 _atom_site_fract_z
 _atom_site_occupancy
  Ti  Ti0_0  1  0.00000000  0.00000000  0.00000000  1
  Ti  Ti0_1  1  0.00000000  0.00000000  0.50000000  1
  Ti  Ti0_2  1  0.00000000  0.50000000  0.00000000  1
  Ti  Ti0_3  1  0.00000000  0.50000000  0.50000000  1
  Ti  Ti0_4  1  0.50000000  0.00000000  0.00000000  1
  Ti  Ti0_5  1  0.50000000  0.00000000  0.50000000  1
  Ti  Ti0_6  1  0.50000000  0.50000000  0.00000000  1
  Ti  Ti0_7  1  0.50000000  0.50000000  0.50000000  1
  N  N0_0  1  0.25000000  0.25000000  0.25000000  1
  N  N0_1  1  0.25000000  0.25000000  0.75000000  1
  N  N0_2  1  0.25000000  0.75000000  0.25000000  1
  N  N0_3  1  0.25000000  0.75000000  0.75000000  1
  N  N0_4  1  0.75000000  0.25000000  0.25000000  1
  N  N0_5  1  0.75000000  0.25000000  0.75000000  1
  N  N0_6  1  0.75000000  0.75000000  0.25000000  1
  N  N0_7  1  0.75000000  0.75000000  0.75000000  1
loop_
_geom_bond_atom_site_label_1
_geom_bond_atom_site_label_2
_geom_bond_distance
_geom_bond_site_symmetry_2
Ti0_0 Ti0_4 2.639304 1_555
Ti0_0 Ti0_1 2.639304 1_555
Ti0_0 Ti0_2 2.639304 1_555
Ti0_0 Ti0_2 2.639304 1_545
Ti0_0 Ti0_1 2.639304 1_554
Ti0_0 Ti0_4 2.639304 1_455
Ti0_1 Ti0_3 2.639304 1_545
Ti0_1 Ti0_3 2.639304 1_555
Ti0_1 Ti0_5 2.639304 1_455
Ti0_1 Ti0_5 2.639304 1_555
Ti0_2 Ti0_6 2.639304 1_555
Ti0_2 Ti0_3 2.639304 1_555
Ti0_2 Ti0_3 2.639304 1_554
Ti0_2 Ti0_6 2.639304 1_455
Ti0_3 Ti0_7 2.639304 1_555
Ti0_3 Ti0_7 2.639304 1_455
Ti0_4 Ti0_6 2.639304 1_555
Ti0_4 Ti0_6 2.639304 1_545
Ti0_4 Ti0_5 2.639304 1_554
Ti0_4 Ti0_5 2.639304 1_555
Ti0_5 Ti0_7 2.639304 1_555
Ti0_5 Ti0_7 2.639304 1_545
Ti0_6 Ti0_7 2.639304 1_555
Ti0_6 Ti0_7 2.639304 1_554
N0_0 Ti0_2 2.285704 1_555
N0_0 Ti0_5 2.285704 1_555
N0_0 Ti0_0 2.285704 1_555
N0_0 Ti0_4 2.285704 1_555
N0_0 Ti0_6 2.285704 1_555
N0_0 Ti0_3 2.285704 1_555
N0_0 Ti0_7 2.285704 1_555
N0_0 Ti0_1 2.285704 1_555
N0_0 N0_1 2.639304 1_555
N0_0 N0_4 2.639304 1_555
N0_0 N0_2 2.639304 1_545
N0_0 N0_4 2.639304 1_455
N0_0 N0_1 2.639304 1_554
N0_0 N0_2 2.639304 1_555
N0_1 Ti0_5 2.285704 1_555
N0_1 Ti0_2 2.285704 1_556
N0_1 Ti0_6 2.285704 1_556
N0_1 Ti0_0 2.285704 1_556
N0_1 Ti0_4 2.285704 1_556
N0_1 Ti0_7 2.285704 1_555
N0_1 Ti0_3 2.285704 1_555
N0_1 Ti0_1 2.285704 1_555
N0_1 N0_5 2.639304 1_555
N0_1 N0_3 2.639304 1_545
N0_1 N0_3 2.639304 1_555
N0_1 N0_5 2.639304 1_455
N0_2 Ti0_2 2.285704 1_555
N0_2 Ti0_4 2.285704 1_565
N0_2 Ti0_1 2.285704 1_565
N0_2 Ti0_5 2.285704 1_565
N0_2 Ti0_6 2.285704 1_555
N0_2 Ti0_7 2.285704 1_555
N0_2 Ti0_0 2.285704 1_565
N0_2 Ti0_3 2.285704 1_555
N0_2 N0_3 2.639304 1_554
N0_2 N0_6 2.639304 1_455
N0_2 N0_3 2.639304 1_555
N0_2 N0_6 2.639304 1_555
N0_3 Ti0_1 2.285704 1_565
N0_3 Ti0_2 2.285704 1_556
N0_3 Ti0_4 2.285704 1_566
N0_3 Ti0_6 2.285704 1_556
N0_3 Ti0_5 2.285704 1_565
N0_3 Ti0_3 2.285704 1_555
N0_3 Ti0_7 2.285704 1_555
N0_3 Ti0_0 2.285704 1_566
N0_3 N0_7 2.639304 1_455
N0_3 N0_7 2.639304 1_555
N0_4 Ti0_5 2.285704 1_555
N0_4 Ti0_1 2.285704 1_655
N0_4 Ti0_2 2.285704 1_655
N0_4 Ti0_4 2.285704 1_555
N0_4 Ti0_6 2.285704 1_555
N0_4 Ti0_7 2.285704 1_555
N0_4 Ti0_3 2.285704 1_655
N0_4 Ti0_0 2.285704 1_655
N0_4 N0_5 2.639304 1_555
N0_4 N0_6 2.639304 1_545
N0_4 N0_6 2.639304 1_555
N0_4 N0_5 2.639304 1_554
N0_5 Ti0_3 2.285704 1_655
N0_5 Ti0_2 2.285704 1_656
N0_5 Ti0_5 2.285704 1_555
N0_5 Ti0_1 2.285704 1_655
N0_5 Ti0_6 2.285704 1_556
N0_5 Ti0_4 2.285704 1_556
N0_5 Ti0_7 2.285704 1_555
N0_5 Ti0_0 2.285704 1_656
N0_5 N0_7 2.639304 1_545
N0_5 N0_7 2.639304 1_555
N0_6 Ti0_3 2.285704 1_655
N0_6 Ti0_4 2.285704 1_565
N0_6 Ti0_1 2.285704 1_665
N0_6 Ti0_2 2.285704 1_655
N0_6 Ti0_5 2.285704 1_565
N0_6 Ti0_6 2.285704 1_555
N0_6 Ti0_7 2.285704 1_555
N0_6 Ti0_0 2.285704 1_665
N0_6 N0_7 2.639304 1_554
N0_6 N0_7 2.639304 1_555
N0_7 Ti0_2 2.285704 1_656
N0_7 Ti0_4 2.285704 1_566
N0_7 Ti0_0 2.285704 1_666
N0_7 Ti0_6 2.285704 1_556
N0_7 Ti0_1 2.285704 1_665
N0_7 Ti0_5 2.285704 1_565
N0_7 Ti0_7 2.285704 1_555
N0_7 Ti0_3 2.285704 1_655
