# generated using pymatgen
data_TlGaSe2
_symmetry_space_group_name_H-M   'P 1'
_cell_length_a   6.67219824
_cell_length_b   6.67219824
_cell_length_c   6.67219824
_cell_angle_alpha   103.86654271
_cell_angle_beta   103.86654271
_cell_angle_gamma   121.37771971
_symmetry_Int_Tables_number   1
_chemical_formula_structural   TlGaSe2
_chemical_formula_sum   'Tl2 Ga2 Se4'
_cell_volume   221.12753518
_cell_formula_units_Z   2
loop_
 _symmetry_equiv_pos_site_id
 _symmetry_equiv_pos_as_xyz
  1  'x, y, z'
loop_
 _atom_site_type_symbol
 _atom_site_label
 _atom_site_symmetry_multiplicity
 _atom_site_fract_x
 _atom_site_fract_y
 _atom_site_fract_z
 _atom_site_occupancy
  Tl  Tl0  1  0.25000000  0.25000000  0.00000000  1
  Tl  Tl1  1  0.75000000  0.75000000  0.00000000  1
  Ga  Ga0  1  0.25000000  0.75000000  0.50000000  1
  Ga  Ga1  1  0.75000000  0.25000000  0.50000000  1
  Se  Se0  1  0.84080200  0.65919800  0.50000000  1
  Se  Se1  1  0.34080200  0.84080200  0.18160300  1
  Se  Se2  1  0.15919800  0.34080200  0.50000000  1
  Se  Se3  1  0.65919800  0.15919800  0.81839700  1
loop_
_geom_bond_atom_site_label_1
_geom_bond_atom_site_label_2
_geom_bond_distance
_geom_bond_site_symmetry_2
Tl0 Tl1 3.266388 1_445
Tl0 Tl1 3.266388 1_555
Ga0 Se2 2.469573 1_555
Ga0 Se0 2.469573 1_455
Ga0 Se3 2.469576 1_565
Ga0 Se1 2.469580 1_555
Ga1 Se2 2.469573 1_655
Ga1 Se0 2.469573 1_555
Ga1 Se1 2.469576 1_545
Ga1 Se3 2.469580 1_555
Se0 Tl0 3.499414 1_555
Se0 Tl1 3.499414 1_556
Se0 Tl0 3.499414 1_666
Se0 Tl1 3.499414 1_555
Se1 Tl1 3.499410 1_555
Se1 Tl0 3.499410 1_565
Se1 Tl0 3.499413 1_555
Se1 Tl1 3.499413 1_455
Se2 Tl1 3.499414 1_556
Se2 Tl1 3.499414 1_445
Se2 Tl0 3.499414 1_555
Se2 Tl0 3.499414 1_556
Se3 Tl0 3.499410 1_556
Se3 Tl1 3.499410 1_546
Se3 Tl1 3.499413 1_556
Se3 Tl0 3.499413 1_656
