# generated using pymatgen
data_V3Cd
_symmetry_space_group_name_H-M   'P 1'
_cell_length_a   5.65568175
_cell_length_b   5.65568175
_cell_length_c   4.48540600
_cell_angle_alpha   90.00000000
_cell_angle_beta   90.00000000
_cell_angle_gamma   119.99999709
_symmetry_Int_Tables_number   1
_chemical_formula_structural   V3Cd
_chemical_formula_sum   'V6 Cd2'
_cell_volume   124.25169758
_cell_formula_units_Z   2
loop_
 _symmetry_equiv_pos_site_id
 _symmetry_equiv_pos_as_xyz
  1  'x, y, z'
loop_
 _atom_site_type_symbol
 _atom_site_label
 _atom_site_symmetry_multiplicity
 _atom_site_fract_x
 _atom_site_fract_y
 _atom_site_fract_z
 _atom_site_occupancy
  V  V0  1  0.15100000  0.30200000  0.25000000  1
  V  V1  1  0.69800000  0.84900000  0.25000000  1
  V  V2  1  0.15100000  0.84900000  0.25000000  1
  V  V3  1  0.84900000  0.69800000  0.75000000  1
  V  V4  1  0.30200000  0.15100000  0.75000000  1
  V  V5  1  0.84900000  0.15100000  0.75000000  1
  Cd  Cd0  1  0.33333300  0.66666700  0.75000000  1
  Cd  Cd1  1  0.66666700  0.33333300  0.25000000  1
loop_
_geom_bond_atom_site_label_1
_geom_bond_atom_site_label_2
_geom_bond_distance
_geom_bond_site_symmetry_2
V0 V2 2.562024 1_545
V0 V1 2.562024 1_445
V0 V4 2.686579 1_554
V0 V4 2.686579 1_555
V0 V5 2.686579 1_455
V0 V5 2.686579 1_454
V0 V2 3.093658 1_555
V0 V1 3.093658 1_555
V1 V2 2.562024 1_655
V1 V3 2.686579 1_555
V1 V3 2.686579 1_554
V1 V5 2.686579 1_565
V1 V5 2.686579 1_564
V1 V2 3.093658 1_555
V2 V4 2.686579 1_564
V2 V3 2.686579 1_454
V2 V3 2.686579 1_455
V2 V4 2.686579 1_565
V3 V5 2.562024 1_565
V3 V4 2.562024 1_665
V3 V5 3.093658 1_555
V3 V4 3.093658 1_555
V4 V5 2.562024 1_455
V4 V5 3.093658 1_555
Cd0 V3 2.831999 1_455
Cd0 V4 2.831999 1_565
Cd0 V5 2.832003 1_455
Cd0 V5 2.832003 1_565
Cd0 V3 2.832005 1_555
Cd0 V4 2.832005 1_555
Cd0 V2 2.867045 1_555
Cd0 V2 2.867045 1_556
Cd0 V1 2.867048 1_556
Cd0 V0 2.867048 1_555
Cd0 V1 2.867048 1_555
Cd0 V0 2.867048 1_556
Cd1 V0 2.831999 1_655
Cd1 V1 2.831999 1_545
Cd1 V2 2.832003 1_655
Cd1 V2 2.832003 1_545
Cd1 V1 2.832005 1_555
Cd1 V0 2.832005 1_555
Cd1 V5 2.867045 1_554
Cd1 V5 2.867045 1_555
Cd1 V4 2.867048 1_554
Cd1 V4 2.867048 1_555
Cd1 V3 2.867048 1_555
Cd1 V3 2.867048 1_554
