# generated using pymatgen
data_CsPdBr3
_symmetry_space_group_name_H-M   'P 1'
_cell_length_a   5.27874173
_cell_length_b   5.27976341
_cell_length_c   5.28056099
_cell_angle_alpha   90.01324861
_cell_angle_beta   90.01654079
_cell_angle_gamma   89.99626930
_symmetry_Int_Tables_number   1
_chemical_formula_structural   CsPdBr3
_chemical_formula_sum   'Cs1 Pd1 Br3'
_cell_volume   147.17190388
_cell_formula_units_Z   1
loop_
 _symmetry_equiv_pos_site_id
 _symmetry_equiv_pos_as_xyz
  1  'x, y, z'
loop_
 _atom_site_type_symbol
 _atom_site_label
 _atom_site_symmetry_multiplicity
 _atom_site_fract_x
 _atom_site_fract_y
 _atom_site_fract_z
 _atom_site_occupancy
  Cs  Cs0  1  0.99971349  0.01209724  0.00142072  1
  Pd  Pd0  1  0.50009528  0.51211222  0.50233923  1
  Br  Br0  1  0.00008225  0.51176848  0.50137834  1
  Br  Br1  1  0.49999171  0.01192508  0.50223923  1
  Br  Br2  1  0.50011926  0.51210299  0.00262148  1
loop_
_geom_bond_atom_site_label_1
_geom_bond_atom_site_label_2
_geom_bond_distance
_geom_bond_site_symmetry_2
Br0 Pd0 2.639309 1_455
Br0 Pd0 2.639444 1_555
Br0 Cs0 3.731822 1_455
Br0 Cs0 3.733002 1_456
Br0 Cs0 3.734593 1_466
Br0 Cs0 3.735140 1_465
Br1 Pd0 2.638894 1_545
Br1 Pd0 2.640870 1_555
Br1 Cs0 3.728644 1_556
Br1 Cs0 3.731800 1_456
Br1 Cs0 3.735837 1_555
Br1 Cs0 3.736834 1_455
Br2 Pd0 2.638790 1_555
Br2 Pd0 2.641771 1_554
Br2 Cs0 3.731387 1_555
Br2 Cs0 3.731589 1_565
Br2 Cs0 3.734372 1_465
Br2 Cs0 3.734656 1_455
