# generated using pymatgen
data_Ti2IrRh
_symmetry_space_group_name_H-M   'P 1'
_cell_length_a   4.38251110
_cell_length_b   4.38251109
_cell_length_c   4.38251105
_cell_angle_alpha   59.99988760
_cell_angle_beta   59.99988765
_cell_angle_gamma   59.99988637
_symmetry_Int_Tables_number   1
_chemical_formula_structural   Ti2IrRh
_chemical_formula_sum   'Ti2 Ir1 Rh1'
_cell_volume   59.51863453
_cell_formula_units_Z   1
loop_
 _symmetry_equiv_pos_site_id
 _symmetry_equiv_pos_as_xyz
  1  'x, y, z'
loop_
 _atom_site_type_symbol
 _atom_site_label
 _atom_site_symmetry_multiplicity
 _atom_site_fract_x
 _atom_site_fract_y
 _atom_site_fract_z
 _atom_site_occupancy
  Ti  Ti0  1  0.00000000  0.00000000  0.00000000  1
  Ti  Ti1  1  0.49999920  0.49999920  0.49999920  1
  Ir  Ir0  1  0.25000085  0.25000085  0.25000085  1
  Rh  Rh0  1  0.74999995  0.74999995  0.74999995  1
loop_
_geom_bond_atom_site_label_1
_geom_bond_atom_site_label_2
_geom_bond_distance
_geom_bond_site_symmetry_2
Ti0 Ti1 3.098896 1_545
Ti0 Ti1 3.098896 1_455
Ti0 Ti1 3.098896 1_554
Ti0 Ti1 3.098906 1_544
Ti0 Ti1 3.098906 1_454
Ti0 Ti1 3.098906 1_445
Ir0 Ti1 2.683714 1_555
Ir0 Ti0 2.683722 1_565
Ir0 Ti0 2.683722 1_655
Ir0 Ti0 2.683722 1_556
Ir0 Ti1 2.683731 1_545
Ir0 Ti1 2.683731 1_455
Ir0 Ti1 2.683731 1_554
Ir0 Ti0 2.683740 1_555
Ir0 Rh0 3.098895 1_545
Ir0 Rh0 3.098895 1_455
Ir0 Rh0 3.098895 1_554
Ir0 Rh0 3.098906 1_544
Ir0 Rh0 3.098906 1_454
Ir0 Rh0 3.098906 1_445
Rh0 Ti1 2.683722 1_565
Rh0 Ti1 2.683722 1_655
Rh0 Ti1 2.683722 1_556
Rh0 Ti0 2.683725 1_656
Rh0 Ti0 2.683725 1_566
Rh0 Ti0 2.683725 1_665
Rh0 Ti0 2.683732 1_666
Rh0 Ti1 2.683739 1_555
