# generated using pymatgen
data_Tl4SnS3
_symmetry_space_group_name_H-M   'P 1'
_cell_length_a   8.14444000
_cell_length_b   8.14444000
_cell_length_c   14.51139500
_cell_angle_alpha   90.00000000
_cell_angle_beta   90.00000000
_cell_angle_gamma   90.00000000
_symmetry_Int_Tables_number   1
_chemical_formula_structural   Tl4SnS3
_chemical_formula_sum   'Tl16 Sn4 S12'
_cell_volume   962.56844428
_cell_formula_units_Z   4
loop_
 _symmetry_equiv_pos_site_id
 _symmetry_equiv_pos_as_xyz
  1  'x, y, z'
loop_
 _atom_site_type_symbol
 _atom_site_label
 _atom_site_symmetry_multiplicity
 _atom_site_fract_x
 _atom_site_fract_y
 _atom_site_fract_z
 _atom_site_occupancy
  Tl  Tl0  1  0.14033500  0.15952600  0.60923800  1
  Tl  Tl1  1  0.85966500  0.84047400  0.60923800  1
  Tl  Tl2  1  0.15952600  0.14033500  0.89076200  1
  Tl  Tl3  1  0.65952600  0.35966500  0.60923800  1
  Tl  Tl4  1  0.34047400  0.64033500  0.60923800  1
  Tl  Tl5  1  0.35966500  0.65952600  0.89076200  1
  Tl  Tl6  1  0.64033500  0.34047400  0.89076200  1
  Tl  Tl7  1  0.84047400  0.85966500  0.89076200  1
  Tl  Tl8  1  0.35966500  0.34047400  0.39076200  1
  Tl  Tl9  1  0.64033500  0.65952600  0.39076200  1
  Tl  Tl10  1  0.34047400  0.35966500  0.10923800  1
  Tl  Tl11  1  0.84047400  0.14033500  0.39076200  1
  Tl  Tl12  1  0.15952600  0.85966500  0.39076200  1
  Tl  Tl13  1  0.14033500  0.84047400  0.10923800  1
  Tl  Tl14  1  0.85966500  0.15952600  0.10923800  1
  Tl  Tl15  1  0.65952600  0.64033500  0.10923800  1
  Sn  Sn0  1  0.50000000  0.00000000  0.74004600  1
  Sn  Sn1  1  0.00000000  0.50000000  0.75995400  1
  Sn  Sn2  1  0.00000000  0.50000000  0.25995400  1
  Sn  Sn3  1  0.50000000  0.00000000  0.24004600  1
  S  S0  1  0.17027600  0.82972400  0.75000000  1
  S  S1  1  0.67027600  0.67027600  0.75000000  1
  S  S2  1  0.32972400  0.32972400  0.75000000  1
  S  S3  1  0.82972400  0.17027600  0.75000000  1
  S  S4  1  0.32972400  0.67027600  0.25000000  1
  S  S5  1  0.82972400  0.82972400  0.25000000  1
  S  S6  1  0.17027600  0.17027600  0.25000000  1
  S  S7  1  0.50000000  0.00000000  0.41470300  1
  S  S8  1  0.67027600  0.32972400  0.25000000  1
  S  S9  1  0.00000000  0.50000000  0.58529700  1
  S  S10  1  0.00000000  0.50000000  0.08529700  1
  S  S11  1  0.50000000  0.00000000  0.91470300  1
loop_
_geom_bond_atom_site_label_1
_geom_bond_atom_site_label_2
_geom_bond_distance
_geom_bond_site_symmetry_2
Tl0 Tl1 3.460858 1_445
Tl0 Tl8 3.926089 1_555
Tl0 Tl12 4.005016 1_545
Tl0 Tl11 4.005016 1_455
Tl1 Tl9 3.926089 1_555
Tl1 Tl12 4.005016 1_655
Tl1 Tl11 4.005016 1_565
Tl2 Tl7 3.460858 1_445
Tl3 Tl4 3.460858 1_555
Tl3 Tl8 4.005016 1_555
Tl3 Tl9 4.005016 1_555
Tl4 Tl8 4.005016 1_555
Tl4 Tl9 4.005016 1_555
Tl5 Tl6 3.460858 1_555
Tl8 Tl9 3.460858 1_555
Tl10 Tl15 3.460858 1_555
Tl10 Tl2 3.926089 1_554
Tl10 Tl6 4.005016 1_554
Tl10 Tl5 4.005016 1_554
Tl11 Tl12 3.460858 1_645
Tl11 Tl3 3.926089 1_555
Tl12 Tl4 3.926089 1_555
Tl13 Tl14 3.460858 1_465
Tl13 Tl5 3.926089 1_554
Tl13 Tl2 4.005016 1_564
Tl13 Tl7 4.005016 1_454
Tl14 Tl6 3.926089 1_554
Tl14 Tl7 4.005016 1_544
Tl14 Tl2 4.005016 1_654
Tl15 Tl7 3.926089 1_554
Tl15 Tl6 4.005016 1_554
Tl15 Tl5 4.005016 1_554
Sn0 Tl3 3.724495 1_555
Sn0 Tl4 3.724495 1_545
Sn0 Tl0 3.724495 1_555
Sn0 Tl1 3.724495 1_545
Sn1 Tl5 3.724495 1_555
Sn1 Tl2 3.724495 1_555
Sn1 Tl6 3.724495 1_455
Sn1 Tl7 3.724495 1_455
Sn2 Tl8 3.724495 1_555
Sn2 Tl9 3.724495 1_455
Sn2 Tl12 3.724495 1_555
Sn2 Tl11 3.724495 1_455
Sn3 Tl10 3.724495 1_555
Sn3 Tl15 3.724495 1_545
Sn3 Tl14 3.724495 1_555
Sn3 Tl13 3.724495 1_545
S0 Tl5 2.910858 1_555
S0 Tl4 2.910858 1_555
S0 Sn1 3.025814 1_555
S0 Sn0 3.025814 1_565
S0 Tl2 3.252652 1_565
S0 Tl1 3.252652 1_455
S0 Tl7 3.383308 1_455
S0 Tl0 3.383308 1_565
S1 Tl7 2.910858 1_555
S1 Tl1 2.910858 1_555
S1 Sn0 3.025814 1_565
S1 Sn1 3.025814 1_655
S1 Tl5 3.252652 1_555
S1 Tl3 3.252652 1_555
S1 Tl6 3.383308 1_555
S1 Tl4 3.383308 1_555
S2 Tl2 2.910858 1_555
S2 Tl0 2.910858 1_555
S2 Sn1 3.025814 1_555
S2 Sn0 3.025814 1_555
S2 Tl6 3.252652 1_555
S2 Tl4 3.252652 1_555
S2 Tl5 3.383308 1_555
S2 Tl3 3.383308 1_555
S3 Tl6 2.910858 1_555
S3 Tl3 2.910858 1_555
S3 Sn0 3.025814 1_555
S3 Sn1 3.025814 1_655
S3 Tl7 3.252652 1_545
S3 Tl0 3.252652 1_655
S3 Tl2 3.383308 1_655
S3 Tl1 3.383308 1_545
S4 Tl13 2.910858 1_555
S4 Tl12 2.910858 1_555
S4 Sn2 3.025814 1_555
S4 Sn3 3.025814 1_565
S4 Tl10 3.252652 1_555
S4 Tl9 3.252652 1_555
S4 Tl8 3.383308 1_555
S4 Tl15 3.383308 1_555
S5 Tl9 2.910858 1_555
S5 Tl15 2.910858 1_555
S5 Sn2 3.025814 1_655
S5 Sn3 3.025814 1_565
S5 Tl11 3.252652 1_565
S5 Tl13 3.252652 1_655
S5 Tl14 3.383308 1_565
S5 Tl12 3.383308 1_655
S6 Tl10 2.910858 1_555
S6 Tl8 2.910858 1_555
S6 Sn2 3.025814 1_555
S6 Sn3 3.025814 1_555
S6 Tl12 3.252652 1_545
S6 Tl14 3.252652 1_455
S6 Tl11 3.383308 1_455
S6 Tl13 3.383308 1_545
S7 Sn3 2.534517 1_555
S7 Tl11 3.019337 1_555
S7 Tl12 3.019337 1_545
S7 Tl9 3.019337 1_545
S7 Tl8 3.019337 1_555
S8 Tl11 2.910858 1_555
S8 Tl14 2.910858 1_555
S8 Sn3 3.025814 1_555
S8 Sn2 3.025814 1_655
S8 Tl15 3.252652 1_555
S8 Tl8 3.252652 1_555
S8 Tl10 3.383308 1_555
S8 Tl9 3.383308 1_555
S9 Sn1 2.534517 1_555
S9 Tl1 3.019337 1_455
S9 Tl4 3.019337 1_555
S9 Tl0 3.019337 1_555
S9 Tl3 3.019337 1_455
S10 Sn2 2.534517 1_555
S10 Tl13 3.019337 1_555
S10 Tl14 3.019337 1_455
S10 Tl15 3.019337 1_455
S10 Tl10 3.019337 1_555
S11 Sn0 2.534517 1_555
S11 Tl7 3.019337 1_545
S11 Tl2 3.019337 1_555
S11 Tl6 3.019337 1_555
S11 Tl5 3.019337 1_545
