# generated using pymatgen
data_TmLuIn2
_symmetry_space_group_name_H-M   'P 1'
_cell_length_a   5.20706265
_cell_length_b   5.20844396
_cell_length_c   5.20978409
_cell_angle_alpha   59.96886240
_cell_angle_beta   59.98300594
_cell_angle_gamma   59.99132814
_symmetry_Int_Tables_number   1
_chemical_formula_structural   TmLuIn2
_chemical_formula_sum   'Tm1 Lu1 In2'
_cell_volume   99.86630713
_cell_formula_units_Z   1
loop_
 _symmetry_equiv_pos_site_id
 _symmetry_equiv_pos_as_xyz
  1  'x, y, z'
loop_
 _atom_site_type_symbol
 _atom_site_label
 _atom_site_symmetry_multiplicity
 _atom_site_fract_x
 _atom_site_fract_y
 _atom_site_fract_z
 _atom_site_occupancy
  Tm  Tm0  1  0.74995016  0.75003704  0.75001417  1
  Lu  Lu0  1  0.25003256  0.24999286  0.24998048  1
  In  In0  1  -0.00000184  -0.00000543  0.00002534  1
  In  In1  1  0.50001912  0.49997452  0.49997801  1
loop_
_geom_bond_atom_site_label_1
_geom_bond_atom_site_label_2
_geom_bond_distance
_geom_bond_site_symmetry_2
Lu0 Tm0 3.681198 1_554
Lu0 Tm0 3.681480 1_445
Lu0 Tm0 3.682097 1_545
Lu0 Tm0 3.682456 1_454
Lu0 Tm0 3.683266 1_544
Lu0 Tm0 3.683839 1_455
In0 Tm0 3.188089 1_544
In0 Lu0 3.188147 1_455
In0 Lu0 3.188692 1_545
In0 Tm0 3.188865 1_454
In0 Tm0 3.189190 1_445
In0 Lu0 3.189429 1_554
In0 Lu0 3.189904 1_555
In0 Tm0 3.190026 1_444
In0 In1 3.681336 1_445
In0 In1 3.681342 1_554
In0 In1 3.682179 1_545
In0 In1 3.682374 1_454
In0 In1 3.683304 1_455
In0 In1 3.683801 1_544
In1 Lu0 3.188350 1_655
In1 Tm0 3.188418 1_545
In1 Tm0 3.188587 1_455
In1 Lu0 3.188762 1_565
In1 Tm0 3.189084 1_554
In1 Lu0 3.189248 1_556
In1 Lu0 3.189810 1_555
In1 Tm0 3.190082 1_555
