# generated using pymatgen
data_V6Si5
_symmetry_space_group_name_H-M   'P 1'
_cell_length_a   4.80213659
_cell_length_b   7.44750289
_cell_length_c   9.07204754
_cell_angle_alpha   114.23121632
_cell_angle_beta   105.34569644
_cell_angle_gamma   90.00128515
_symmetry_Int_Tables_number   1
_chemical_formula_structural   V6Si5
_chemical_formula_sum   'V12 Si10'
_cell_volume   283.13252681
_cell_formula_units_Z   2
loop_
 _symmetry_equiv_pos_site_id
 _symmetry_equiv_pos_as_xyz
  1  'x, y, z'
loop_
 _atom_site_type_symbol
 _atom_site_label
 _atom_site_symmetry_multiplicity
 _atom_site_fract_x
 _atom_site_fract_y
 _atom_site_fract_z
 _atom_site_occupancy
  V  V0  1  0.06036767  0.31035595  0.62074629  1
  V  V1  1  0.43962073  0.68963351  0.37922780  1
  V  V2  1  0.93963233  0.68964405  0.37925371  1
  V  V3  1  0.56037927  0.31036649  0.62077220  1
  V  V4  1  0.14351292  0.25760915  0.28681899  1
  V  V5  1  0.85648708  0.74239085  0.71318101  1
  V  V6  1  0.35662837  0.97081159  0.71326771  1
  V  V7  1  0.64337163  0.02918841  0.28673229  1
  V  V8  1  0.43471776  0.68173508  0.86931194  1
  V  V9  1  0.56528224  0.31826492  0.13068806  1
  V  V10  1  0.06541225  0.81240841  0.13069423  1
  V  V11  1  0.93458775  0.18759159  0.86930577  1
  Si  Si0  1  0.75001904  0.00002035  0.00003640  1
  Si  Si1  1  0.24998096  0.99997965  0.99996360  1
  Si  Si2  1  0.28577385  0.58308685  0.57149429  1
  Si  Si3  1  0.71422615  0.41691315  0.42850571  1
  Si  Si4  1  0.21425531  0.01163641  0.42849839  1
  Si  Si5  1  0.78574469  0.98836359  0.57150161  1
  Si  Si6  1  0.06324549  0.47386660  0.12672816  1
  Si  Si7  1  0.93675451  0.52613340  0.87327184  1
  Si  Si8  1  0.43658411  0.34715059  0.87328761  1
  Si  Si9  1  0.56341589  0.65284941  0.12671239  1
loop_
_geom_bond_atom_site_label_1
_geom_bond_atom_site_label_2
_geom_bond_distance
_geom_bond_site_symmetry_2
V0 V3 2.401062 1_555
V0 V3 2.401075 1_455
V0 V11 2.949354 1_455
V0 V8 2.949780 1_555
V0 V4 3.025624 1_555
V0 V7 3.025980 1_455
V1 V2 2.401062 1_555
V1 V2 2.401075 1_455
V1 V10 2.949037 1_555
V1 V9 2.949395 1_555
V1 V5 3.025442 1_555
V1 V6 3.026177 1_555
V2 V9 2.949780 1_555
V2 V5 3.025624 1_555
V2 V6 3.025980 1_655
V3 V8 2.949395 1_555
V3 V4 3.025442 1_555
V3 V7 3.026177 1_555
V4 V9 2.890700 1_555
V4 V9 2.892092 1_455
V4 V7 2.942094 1_555
V4 V7 2.942799 1_455
V5 V8 2.890700 1_555
V5 V8 2.892092 1_655
V5 V6 2.942094 1_555
V5 V6 2.942799 1_655
V6 V8 3.000065 1_555
V7 V9 3.000065 1_555
V10 V7 2.890987 1_565
V10 V7 2.891465 1_465
V10 V2 2.949354 1_455
V10 V4 3.000696 1_565
V11 V6 2.890987 1_545
V11 V6 2.891465 1_645
V11 V3 2.949037 1_555
V11 V5 3.000696 1_545
Si0 Si1 2.401060 1_644
Si0 Si1 2.401076 1_544
Si0 V11 2.461674 1_554
Si0 V8 2.461675 1_544
Si0 V9 2.461722 1_555
Si0 V10 2.461820 1_645
Si0 V7 2.704719 1_555
Si0 V6 2.705268 1_544
Si0 V4 2.705662 1_655
Si0 V5 2.705697 1_544
Si1 V10 2.461674 1_556
Si1 V9 2.461675 1_566
Si1 V8 2.461722 1_555
Si1 V11 2.461820 1_465
Si1 V6 2.704719 1_555
Si1 V7 2.705268 1_566
Si1 V5 2.705662 1_455
Si1 V4 2.705697 1_566
Si2 V8 2.387247 1_555
Si2 V1 2.456830 1_555
Si2 V2 2.456847 1_455
Si2 V3 2.549026 1_555
Si2 V0 2.549074 1_555
Si2 V6 2.613030 1_555
Si2 V4 2.634334 1_555
Si2 V5 2.730282 1_555
Si2 V5 2.731373 1_455
Si2 Si3 2.746374 1_555
Si2 Si3 2.746829 1_455
Si3 V9 2.387247 1_555
Si3 V3 2.456830 1_555
Si3 V0 2.456847 1_655
Si3 V1 2.549026 1_555
Si3 V2 2.549074 1_555
Si3 V7 2.613030 1_555
Si3 V5 2.634334 1_555
Si3 V4 2.730282 1_555
Si3 V4 2.731373 1_655
Si4 V10 2.387251 1_545
Si4 V0 2.456543 1_555
Si4 V3 2.456594 1_555
Si4 V2 2.549115 1_445
Si4 V1 2.549171 1_545
Si4 V4 2.612449 1_555
Si4 V6 2.635136 1_545
Si4 V7 2.730983 1_555
Si4 V7 2.731049 1_455
Si4 Si5 2.746786 1_545
Si4 Si5 2.746826 1_445
Si5 V11 2.387251 1_565
Si5 V2 2.456543 1_555
Si5 V1 2.456594 1_555
Si5 V0 2.549115 1_665
Si5 V3 2.549171 1_565
Si5 V5 2.612449 1_555
Si5 V7 2.635136 1_565
Si5 V6 2.730983 1_555
Si5 V6 2.731049 1_655
Si6 V11 2.351681 1_454
Si6 Si7 2.408948 1_454
Si6 V2 2.425086 1_455
Si6 V1 2.425535 1_555
Si6 V10 2.506721 1_555
Si6 V4 2.544727 1_555
Si6 V9 2.672449 1_455
Si6 V9 2.672987 1_555
Si6 Si9 2.745567 1_455
Si6 Si9 2.747012 1_555
Si7 V10 2.351681 1_656
Si7 V0 2.425086 1_655
Si7 V3 2.425535 1_555
Si7 V11 2.506721 1_555
Si7 V5 2.544727 1_555
Si7 V8 2.672449 1_655
Si7 V8 2.672987 1_555
Si7 Si8 2.745567 1_655
Si7 Si8 2.747012 1_555
Si8 V9 2.351523 1_556
Si8 Si9 2.408802 1_556
Si8 V0 2.425262 1_555
Si8 V3 2.425293 1_555
Si8 V8 2.506820 1_555
Si8 V6 2.544713 1_545
Si8 V11 2.672677 1_555
Si8 V11 2.672677 1_455
Si9 V8 2.351523 1_554
Si9 V2 2.425262 1_555
Si9 V1 2.425293 1_555
Si9 V9 2.506820 1_555
Si9 V7 2.544713 1_565
Si9 V10 2.672677 1_555
Si9 V10 2.672677 1_655
