# generated using pymatgen
data_Na(TeMo)3
_symmetry_space_group_name_H-M   'P 1'
_cell_length_a   9.40135814
_cell_length_b   9.39956975
_cell_length_c   4.59743556
_cell_angle_alpha   90.00000000
_cell_angle_beta   90.00000000
_cell_angle_gamma   120.01256743
_symmetry_Int_Tables_number   1
_chemical_formula_structural   Na(TeMo)3
_chemical_formula_sum   'Na2 Te6 Mo6'
_cell_volume   351.79514578
_cell_formula_units_Z   2
loop_
 _symmetry_equiv_pos_site_id
 _symmetry_equiv_pos_as_xyz
  1  'x, y, z'
loop_
 _atom_site_type_symbol
 _atom_site_label
 _atom_site_symmetry_multiplicity
 _atom_site_fract_x
 _atom_site_fract_y
 _atom_site_fract_z
 _atom_site_occupancy
  Na  Na0  1  0.33332112  0.66669614  0.24999800  1
  Na  Na1  1  0.66667888  0.33330386  0.74999900  1
  Te  Te0  1  0.38218501  0.08539433  0.24999800  1
  Te  Te1  1  0.91474196  0.29693378  0.24999800  1
  Te  Te2  1  0.70304375  0.61771594  0.24999800  1
  Te  Te3  1  0.29695625  0.38228406  0.74999900  1
  Te  Te4  1  0.08525704  0.70306622  0.74999900  1
  Te  Te5  1  0.61781499  0.91460467  0.74999900  1
  Mo  Mo0  1  0.13771839  0.17887993  0.24999800  1
  Mo  Mo1  1  0.04110185  0.86227058  0.24999800  1
  Mo  Mo2  1  0.82116675  0.95885376  0.24999800  1
  Mo  Mo3  1  0.17883325  0.04114624  0.74999900  1
  Mo  Mo4  1  0.95889815  0.13773042  0.74999900  1
  Mo  Mo5  1  0.86228261  0.82112007  0.74999900  1
loop_
_geom_bond_atom_site_label_1
_geom_bond_atom_site_label_2
_geom_bond_distance
_geom_bond_site_symmetry_2
Na0 Te5 3.410694 1_554
Na0 Te5 3.410700 1_555
Na0 Te3 3.410786 1_554
Na0 Te3 3.410792 1_555
Na0 Te4 3.411364 1_554
Na0 Te4 3.411370 1_555
Na0 Te1 3.726029 1_455
Na0 Te0 3.727091 1_565
Na0 Te2 3.727558 1_555
Na1 Te0 3.410697 1_556
Na1 Te0 3.410703 1_555
Na1 Te2 3.410786 1_556
Na1 Te2 3.410792 1_555
Na1 Te1 3.411357 1_556
Na1 Te1 3.411363 1_555
Na1 Te4 3.726024 1_655
Na1 Te5 3.727100 1_545
Na1 Te3 3.727558 1_555
Mo0 Mo2 2.641350 1_445
Mo0 Mo1 2.641474 1_545
Mo0 Mo4 2.758526 1_454
Mo0 Mo4 2.758534 1_455
Mo0 Mo3 2.758658 1_554
Mo0 Mo3 2.758665 1_555
Mo0 Te1 2.820065 1_455
Mo0 Te0 2.841616 1_555
Mo0 Te3 2.883979 1_554
Mo0 Te3 2.883986 1_555
Mo1 Mo2 2.641468 1_455
Mo1 Mo5 2.758520 1_454
Mo1 Mo5 2.758527 1_455
Mo1 Mo3 2.758578 1_564
Mo1 Mo3 2.758586 1_565
Mo1 Te0 2.820169 1_565
Mo1 Te2 2.841920 1_455
Mo1 Te4 2.883959 1_554
Mo1 Te4 2.883966 1_555
Mo2 Mo4 2.758582 1_564
Mo2 Mo4 2.758589 1_565
Mo2 Mo5 2.758661 1_554
Mo2 Mo5 2.758669 1_555
Mo2 Te2 2.820093 1_555
Mo2 Te1 2.841778 1_565
Mo2 Te5 2.883840 1_554
Mo2 Te5 2.883847 1_555
Mo3 Mo5 2.641343 1_445
Mo3 Mo4 2.641475 1_455
Mo3 Te3 2.820093 1_555
Mo3 Te4 2.841775 1_545
Mo3 Te0 2.883841 1_556
Mo3 Te0 2.883849 1_555
Mo4 Mo5 2.641485 1_545
Mo4 Te5 2.820173 1_545
Mo4 Te3 2.841917 1_655
Mo4 Te1 2.883957 1_556
Mo4 Te1 2.883964 1_555
Mo5 Te4 2.820047 1_655
Mo5 Te5 2.841618 1_555
Mo5 Te2 2.883981 1_556
Mo5 Te2 2.883988 1_555
