# generated using pymatgen
data_SrHg3
_symmetry_space_group_name_H-M   'P 1'
_cell_length_a   5.32316198
_cell_length_b   5.98062042
_cell_length_c   6.85563346
_cell_angle_alpha   89.97778032
_cell_angle_beta   90.03184907
_cell_angle_gamma   89.97337593
_symmetry_Int_Tables_number   1
_chemical_formula_structural   SrHg3
_chemical_formula_sum   'Sr2 Hg6'
_cell_volume   218.25457885
_cell_formula_units_Z   2
loop_
 _symmetry_equiv_pos_site_id
 _symmetry_equiv_pos_as_xyz
  1  'x, y, z'
loop_
 _atom_site_type_symbol
 _atom_site_label
 _atom_site_symmetry_multiplicity
 _atom_site_fract_x
 _atom_site_fract_y
 _atom_site_fract_z
 _atom_site_occupancy
  Sr  Sr0  1  0.75000649  0.13661686  0.75014151  1
  Sr  Sr1  1  0.24999736  0.86342946  0.24985084  1
  Hg  Hg0  1  0.75034051  0.65203851  0.49789536  1
  Hg  Hg1  1  0.74980836  0.65193573  0.00228131  1
  Hg  Hg2  1  0.74980043  0.20129853  0.25018599  1
  Hg  Hg3  1  0.25020368  0.34807529  0.99776077  1
  Hg  Hg4  1  0.24965478  0.34800414  0.50205650  1
  Hg  Hg5  1  0.25018639  0.79859848  0.74982271  1
loop_
_geom_bond_atom_site_label_1
_geom_bond_atom_site_label_2
_geom_bond_distance
_geom_bond_site_symmetry_2
Hg0 Hg2 3.186579 1_555
Hg0 Hg4 3.219792 1_655
Hg0 Hg4 3.227241 1_555
Hg0 Hg5 3.290762 1_655
Hg0 Hg5 3.292983 1_555
Hg0 Sr0 3.375390 1_565
Hg0 Hg1 3.397748 1_555
Hg0 Sr1 3.401590 1_655
Hg0 Sr1 3.402050 1_555
Hg0 Hg1 3.457888 1_556
Hg0 Sr0 3.533899 1_555
Hg0 Hg2 3.697328 1_565
Hg1 Hg2 3.185656 1_555
Hg1 Hg3 3.221910 1_554
Hg1 Hg3 3.224019 1_654
Hg1 Hg5 3.290859 1_554
Hg1 Hg5 3.296325 1_654
Hg1 Sr0 3.374393 1_564
Hg1 Sr1 3.400403 1_555
Hg1 Sr1 3.401421 1_655
Hg1 Sr0 3.534174 1_554
Hg1 Hg2 3.699661 1_565
Hg2 Hg3 3.290811 1_554
Hg2 Hg4 3.290827 1_655
Hg2 Hg4 3.292973 1_555
Hg2 Hg3 3.296494 1_654
Hg2 Sr1 3.341635 1_545
Hg2 Sr1 3.341811 1_645
Hg2 Sr0 3.449123 1_555
Hg2 Sr0 3.450028 1_554
Hg3 Hg5 3.185202 1_555
Hg3 Sr1 3.374037 1_546
Hg3 Hg4 3.398367 1_555
Hg3 Sr0 3.400461 1_555
Hg3 Sr0 3.401547 1_455
Hg3 Hg4 3.457269 1_556
Hg3 Sr1 3.534191 1_556
Hg3 Hg5 3.700372 1_545
Hg4 Hg5 3.186050 1_555
Hg4 Sr1 3.375228 1_545
Hg4 Sr0 3.401685 1_455
Hg4 Sr0 3.402216 1_555
Hg4 Sr1 3.533782 1_555
Hg4 Hg5 3.698281 1_545
Hg5 Sr0 3.342248 1_565
Hg5 Sr0 3.342279 1_465
Hg5 Sr1 3.449334 1_555
Hg5 Sr1 3.450017 1_556
