# generated using pymatgen
data_YCuTe2
_symmetry_space_group_name_H-M   'P 1'
_cell_length_a   4.33881407
_cell_length_b   6.90745492
_cell_length_c   7.49442104
_cell_angle_alpha   88.96898503
_cell_angle_beta   90.00000000
_cell_angle_gamma   90.00000000
_symmetry_Int_Tables_number   1
_chemical_formula_structural   YCuTe2
_chemical_formula_sum   'Y2 Cu2 Te4'
_cell_volume   224.57265331
_cell_formula_units_Z   2
loop_
 _symmetry_equiv_pos_site_id
 _symmetry_equiv_pos_as_xyz
  1  'x, y, z'
loop_
 _atom_site_type_symbol
 _atom_site_label
 _atom_site_symmetry_multiplicity
 _atom_site_fract_x
 _atom_site_fract_y
 _atom_site_fract_z
 _atom_site_occupancy
  Y  Y0  1  0.00000000  -0.00000000  -0.00000000  1
  Y  Y1  1  0.50000000  -0.00000000  0.50000000  1
  Cu  Cu0  1  0.50000000  0.64578276  0.84023096  1
  Cu  Cu1  1  0.50000000  0.35421724  0.15976904  1
  Te  Te0  1  0.00000000  0.26301735  0.33335769  1
  Te  Te1  1  0.50000000  0.26066058  0.82522629  1
  Te  Te2  1  0.50000000  0.73933942  0.17477371  1
  Te  Te3  1  0.00000000  0.73698265  0.66664231  1
loop_
_geom_bond_atom_site_label_1
_geom_bond_atom_site_label_2
_geom_bond_distance
_geom_bond_site_symmetry_2
Cu0 Te2 2.600386 1_556
Cu0 Te3 2.601181 1_555
Cu0 Te3 2.601181 1_655
Cu0 Te1 2.664611 1_555
Cu0 Cu1 3.101189 1_556
Cu0 Y0 3.497428 1_666
Cu0 Y0 3.497428 1_566
Cu0 Y1 3.501953 1_565
Cu1 Te1 2.600386 1_554
Cu1 Te0 2.601181 1_555
Cu1 Te0 2.601181 1_655
Cu1 Te2 2.664611 1_555
Cu1 Y0 3.497428 1_655
Cu1 Y0 3.497428 1_555
Cu1 Y1 3.501953 1_555
Te0 Y1 3.079787 1_555
Te0 Y1 3.079787 1_455
Te0 Y0 3.115389 1_555
Te1 Y1 3.056235 1_555
Te1 Y0 3.094981 1_656
Te1 Y0 3.094981 1_556
Te2 Y1 3.056235 1_565
Te2 Y0 3.094981 1_565
Te2 Y0 3.094981 1_665
Te3 Y1 3.079787 1_565
Te3 Y1 3.079787 1_465
Te3 Y0 3.115389 1_566
