# generated using pymatgen
data_BaHfO3
_symmetry_space_group_name_H-M   'P 1'
_cell_length_a   4.17004239
_cell_length_b   4.16909121
_cell_length_c   4.17037663
_cell_angle_alpha   89.99946430
_cell_angle_beta   89.99434031
_cell_angle_gamma   89.99884047
_symmetry_Int_Tables_number   1
_chemical_formula_structural   BaHfO3
_chemical_formula_sum   'Ba1 Hf1 O3'
_cell_volume   72.50319462
_cell_formula_units_Z   1
loop_
 _symmetry_equiv_pos_site_id
 _symmetry_equiv_pos_as_xyz
  1  'x, y, z'
loop_
 _atom_site_type_symbol
 _atom_site_label
 _atom_site_symmetry_multiplicity
 _atom_site_fract_x
 _atom_site_fract_y
 _atom_site_fract_z
 _atom_site_occupancy
  Ba  Ba0  1  0.98792422  0.99996520  0.99642496  1
  Hf  Hf0  1  0.48800739  0.49998673  0.49787533  1
  O  O0  1  0.48803115  0.00000820  0.49889014  1
  O  O1  1  0.98799671  0.50002674  0.49886535  1
  O  O2  1  0.48804153  0.50001213  0.99794122  1
loop_
_geom_bond_atom_site_label_1
_geom_bond_atom_site_label_2
_geom_bond_distance
_geom_bond_site_symmetry_2
Ba0 O1 2.941090 1_555
Ba0 O0 2.941352 1_565
Ba0 O1 2.941426 1_565
Ba0 O0 2.941693 1_665
Ba0 O2 2.947881 1_555
Ba0 O2 2.948098 1_565
Ba0 O2 2.948514 1_655
Ba0 O2 2.948850 1_665
Ba0 O1 2.955459 1_556
Ba0 O0 2.955602 1_566
Ba0 O1 2.955848 1_566
Ba0 O0 2.956523 1_666
Hf0 O0 2.084460 1_555
Hf0 O0 2.084639 1_565
Hf0 O2 2.084914 1_554
Hf0 O1 2.084981 1_555
Hf0 O1 2.085069 1_455
Hf0 O2 2.085463 1_555
