# generated using pymatgen
data_SmTmRu2
_symmetry_space_group_name_H-M   'P 1'
_cell_length_a   4.79934699
_cell_length_b   4.79934699
_cell_length_c   4.79934699
_cell_angle_alpha   60.00000000
_cell_angle_beta   60.00000000
_cell_angle_gamma   60.00000000
_symmetry_Int_Tables_number   1
_chemical_formula_structural   SmTmRu2
_chemical_formula_sum   'Sm1 Tm1 Ru2'
_cell_volume   78.16844135
_cell_formula_units_Z   1
loop_
 _symmetry_equiv_pos_site_id
 _symmetry_equiv_pos_as_xyz
  1  'x, y, z'
loop_
 _atom_site_type_symbol
 _atom_site_label
 _atom_site_symmetry_multiplicity
 _atom_site_fract_x
 _atom_site_fract_y
 _atom_site_fract_z
 _atom_site_occupancy
  Sm  Sm0  1  0.24999900  0.24999900  0.24999900  1
  Tm  Tm0  1  0.74999900  0.74999900  0.74999900  1
  Ru  Ru0  1  -0.00000000  0.00000000  0.00000000  1
  Ru  Ru1  1  0.50000000  0.50000000  0.50000000  1
loop_
_geom_bond_atom_site_label_1
_geom_bond_atom_site_label_2
_geom_bond_distance
_geom_bond_site_symmetry_2
Sm0 Tm0 3.393651 1_455
Sm0 Tm0 3.393651 1_554
Sm0 Tm0 3.393651 1_445
Sm0 Tm0 3.393651 1_454
Sm0 Tm0 3.393651 1_544
Sm0 Tm0 3.393651 1_545
Ru0 Sm0 2.938976 1_555
Ru0 Tm0 2.938984 1_544
Ru0 Tm0 2.938984 1_454
Ru0 Tm0 2.938984 1_445
Ru0 Sm0 2.938992 1_455
Ru0 Sm0 2.938992 1_545
Ru0 Sm0 2.938992 1_554
Ru0 Tm0 2.939000 1_444
Ru0 Ru1 3.393651 1_455
Ru0 Ru1 3.393651 1_454
Ru0 Ru1 3.393651 1_445
Ru0 Ru1 3.393651 1_544
Ru0 Ru1 3.393651 1_554
Ru0 Ru1 3.393651 1_545
Ru1 Tm0 2.938976 1_555
Ru1 Sm0 2.938984 1_655
Ru1 Sm0 2.938984 1_556
Ru1 Sm0 2.938984 1_565
Ru1 Tm0 2.938992 1_545
Ru1 Tm0 2.938992 1_455
Ru1 Tm0 2.938992 1_554
Ru1 Sm0 2.939000 1_555
