# generated using pymatgen
data_Li(CoO2)3
_symmetry_space_group_name_H-M   'P 1'
_cell_length_a   4.91377900
_cell_length_b   4.93188671
_cell_length_c   10.46737895
_cell_angle_alpha   90.34910676
_cell_angle_beta   103.23708695
_cell_angle_gamma   119.45816014
_symmetry_Int_Tables_number   1
_chemical_formula_structural   Li(CoO2)3
_chemical_formula_sum   'Li2 Co6 O12'
_cell_volume   212.88567049
_cell_formula_units_Z   2
loop_
 _symmetry_equiv_pos_site_id
 _symmetry_equiv_pos_as_xyz
  1  'x, y, z'
loop_
 _atom_site_type_symbol
 _atom_site_label
 _atom_site_symmetry_multiplicity
 _atom_site_fract_x
 _atom_site_fract_y
 _atom_site_fract_z
 _atom_site_occupancy
  Li  Li0  1  0.83173300  0.07631700  0.24504800  1
  Li  Li1  1  0.16710000  0.90581300  0.74598400  1
  Co  Co0  1  0.33734000  0.00064000  0.00425600  1
  Co  Co1  1  0.00278400  0.16897000  0.50711600  1
  Co  Co2  1  0.99705700  0.33444500  0.99560400  1
  Co  Co3  1  0.65443300  0.49438200  0.49151900  1
  Co  Co4  1  0.66257000  0.66853500  0.99704400  1
  Co  Co5  1  0.33361900  0.83387700  0.49776100  1
  O  O0  1  0.05017300  0.03191800  0.09453900  1
  O  O1  1  0.60979000  0.11650900  0.40046400  1
  O  O2  1  0.38424000  0.18013000  0.59888300  1
  O  O3  1  0.27180600  0.29773400  0.90483900  1
  O  O4  1  0.73458600  0.36732100  0.09430600  1
  O  O5  1  0.24796500  0.45613300  0.40193700  1
  O  O6  1  0.07110300  0.54428300  0.59655900  1
  O  O7  1  0.94128100  0.64380200  0.90411700  1
  O  O8  1  0.42152800  0.71304300  0.10085100  1
  O  O9  1  0.73467700  0.87903700  0.59860500  1
  O  O10  1  0.95323400  0.82903900  0.40184500  1
  O  O11  1  0.57993000  0.95154700  0.89868900  1
loop_
_geom_bond_atom_site_label_1
_geom_bond_atom_site_label_2
_geom_bond_distance
_geom_bond_site_symmetry_2
Li0 O8 2.138399 1_545
Li0 O0 2.164128 1_655
Li0 O10 2.197554 1_545
Li0 O1 2.212762 1_555
Li0 O5 2.246096 1_655
Li0 O4 2.265802 1_555
Li1 O6 2.156140 1_555
Li1 O2 2.167397 1_565
Li1 O11 2.186664 1_555
Li1 O7 2.257824 1_455
Li1 O9 2.265513 1_455
Li1 O3 2.314440 1_565
Co0 O11 1.893267 1_544
Co0 O8 1.899565 1_545
Co0 O4 1.906224 1_555
Co0 O7 1.912578 1_444
Co0 O3 1.913826 1_554
Co0 O0 1.931584 1_555
Co1 O9 1.854441 1_445
Co1 O2 1.874136 1_555
Co1 O10 1.880766 1_445
Co1 O1 1.886819 1_455
Co1 O5 1.901980 1_555
Co1 O6 1.907668 1_555
Co2 O4 1.889695 1_556
Co2 O3 1.893092 1_655
Co2 O7 1.904958 1_555
Co2 O0 1.909133 1_656
Co2 O11 2.003427 1_545
Co2 O8 2.035325 1_656
Co3 O5 1.916664 1_555
Co3 O1 1.977408 1_555
Co3 O6 1.982817 1_655
Co3 O10 2.006846 1_555
Co3 O9 2.011654 1_555
Co3 O2 2.026909 1_555
Co4 O8 1.863848 1_556
Co4 O11 1.885883 1_555
Co4 O7 1.899884 1_555
Co4 O0 1.900287 1_666
Co4 O3 1.907552 1_555
Co4 O4 1.933669 1_556
Co5 O2 1.880966 1_565
Co5 O6 1.894768 1_555
Co5 O10 1.897008 1_455
Co5 O1 1.900392 1_565
Co5 O9 1.913189 1_555
Co5 O5 1.914839 1_555
