# generated using pymatgen
data_CaTlCl3
_symmetry_space_group_name_H-M   'P 1'
_cell_length_a   4.07088862
_cell_length_b   7.07598544
_cell_length_c   10.33872924
_cell_angle_alpha   90.00000000
_cell_angle_beta   90.00000000
_cell_angle_gamma   106.79705445
_symmetry_Int_Tables_number   1
_chemical_formula_structural   CaTlCl3
_chemical_formula_sum   'Ca2 Tl2 Cl6'
_cell_volume   285.10639359
_cell_formula_units_Z   2
loop_
 _symmetry_equiv_pos_site_id
 _symmetry_equiv_pos_as_xyz
  1  'x, y, z'
loop_
 _atom_site_type_symbol
 _atom_site_label
 _atom_site_symmetry_multiplicity
 _atom_site_fract_x
 _atom_site_fract_y
 _atom_site_fract_z
 _atom_site_occupancy
  Ca  Ca0  1  0.00000153  0.00000294  0.25001047  1
  Ca  Ca1  1  -0.00000153  0.99999706  0.75001047  1
  Tl  Tl0  1  0.25689746  0.51672830  -0.00000092  1
  Tl  Tl1  1  0.74310154  0.48327170  0.49999908  1
  Cl  Cl0  1  0.36731328  0.73524255  0.29719793  1
  Cl  Cl1  1  0.63268772  0.26475645  0.79719693  1
  Cl  Cl2  1  0.36731260  0.73524418  0.70280185  1
  Cl  Cl3  1  0.63268540  0.26475482  0.20280185  1
  Cl  Cl4  1  0.93620616  0.87203487  0.00000668  1
  Cl  Cl5  1  0.06379284  0.12796413  0.50000668  1
loop_
_geom_bond_atom_site_label_1
_geom_bond_atom_site_label_2
_geom_bond_distance
_geom_bond_site_symmetry_2
Ca0 Cl5 2.726126 1_555
Ca0 Cl4 2.726215 1_445
Ca0 Cl0 2.755485 1_445
Ca0 Cl3 2.755486 1_555
Ca0 Cl0 2.757306 1_545
Ca0 Cl3 2.757307 1_455
Ca1 Cl4 2.726128 1_456
Ca1 Cl5 2.726213 1_565
Ca1 Cl1 2.755483 1_565
Ca1 Cl2 2.755495 1_455
Ca1 Cl1 2.757295 1_465
Ca1 Cl2 2.757307 1_555
Cl0 Tl1 3.378415 1_455
Cl0 Tl1 3.389947 1_555
Cl0 Tl0 3.410620 1_555
Cl1 Tl0 3.378418 1_656
Cl1 Tl0 3.389963 1_556
Cl1 Tl1 3.410614 1_555
Cl2 Tl1 3.378427 1_455
Cl2 Tl1 3.389967 1_555
Cl2 Tl0 3.410610 1_556
Cl3 Tl0 3.378432 1_655
Cl3 Tl0 3.389969 1_555
Cl3 Tl1 3.410613 1_555
Cl4 Tl0 3.149960 1_655
Cl4 Tl0 3.154354 1_555
Cl5 Tl1 3.149967 1_455
Cl5 Tl1 3.154358 1_555
