# generated using pymatgen
data_UNiB4
_symmetry_space_group_name_H-M   'P 1'
_cell_length_a   6.80465706
_cell_length_b   6.80468146
_cell_length_c   6.80398800
_cell_angle_alpha   113.10574017
_cell_angle_beta   113.10563786
_cell_angle_gamma   102.42784746
_symmetry_Int_Tables_number   1
_chemical_formula_structural   UNiB4
_chemical_formula_sum   'U4 Ni4 B16'
_cell_volume   239.80969796
_cell_formula_units_Z   4
loop_
 _symmetry_equiv_pos_site_id
 _symmetry_equiv_pos_as_xyz
  1  'x, y, z'
loop_
 _atom_site_type_symbol
 _atom_site_label
 _atom_site_symmetry_multiplicity
 _atom_site_fract_x
 _atom_site_fract_y
 _atom_site_fract_z
 _atom_site_occupancy
  U  U0  1  0.20038308  0.20038492  0.00000082  1
  U  U1  1  0.79960857  0.79960733  -0.00000098  1
  U  U2  1  0.74999924  0.24999919  0.50000084  1
  U  U3  1  0.24999867  0.74999813  0.49999811  1
  Ni  Ni0  1  0.50001507  0.27423317  0.77422506  1
  Ni  Ni1  1  0.50000768  0.72579052  0.22577533  1
  Ni  Ni2  1  0.72579369  0.50001221  0.22577432  1
  Ni  Ni3  1  0.27423789  0.50001877  0.77422602  1
  B  B0  1  0.11120146  0.27575473  0.38696348  1
  B  B1  1  0.88879084  0.72423741  0.61303664  1
  B  B2  1  0.88878542  0.27574054  0.16453191  1
  B  B3  1  0.11120895  0.72425357  0.83546795  1
  B  B4  1  0.72423968  0.88879185  0.61303718  1
  B  B5  1  0.27575555  0.11120259  0.38696337  1
  B  B6  1  0.72425161  0.11120666  0.83546919  1
  B  B7  1  0.27573664  0.88878198  0.16453089  1
  B  B8  1  0.42251140  0.42251645  0.53828627  1
  B  B9  1  0.88423057  0.88422657  0.46171391  1
  B  B10  1  0.57749348  0.11574714  0.00000061  1
  B  B11  1  0.11574651  0.57749416  -0.00000050  1
  B  B12  1  0.57748144  0.57748401  0.46171210  1
  B  B13  1  0.11577144  0.11576764  0.53828764  1
  B  B14  1  0.88425252  0.42249831  0.00000072  1
  B  B15  1  0.42249860  0.88425214  -0.00000086  1
loop_
_geom_bond_atom_site_label_1
_geom_bond_atom_site_label_2
_geom_bond_distance
_geom_bond_site_symmetry_2
Ni0 Ni2 2.394724 1_556
Ni0 Ni3 2.395167 1_555
Ni0 U2 2.961813 1_555
Ni0 U3 2.962008 1_545
Ni0 U1 3.064528 1_556
Ni0 U0 3.064728 1_556
Ni1 Ni3 2.394724 1_554
Ni1 Ni2 2.395175 1_555
Ni1 U2 2.961848 1_565
Ni1 U3 2.961958 1_555
Ni1 U1 3.064510 1_555
Ni1 U0 3.064750 1_555
Ni2 U3 2.961817 1_655
Ni2 U2 2.962010 1_555
Ni2 U1 3.064476 1_555
Ni2 U0 3.064776 1_555
Ni3 U3 2.961812 1_555
Ni3 U2 2.962023 1_455
Ni3 U1 3.064495 1_556
Ni3 U0 3.064750 1_556
B0 B2 1.668270 1_455
B0 B5 1.745636 1_555
B0 B13 1.765057 1_555
B0 B8 1.765064 1_555
B0 Ni3 2.079307 1_555
B0 U0 2.809194 1_555
B0 U1 2.809244 1_445
B0 U2 2.840306 1_455
B0 U3 2.840356 1_555
B1 B3 1.668269 1_655
B1 B4 1.745633 1_555
B1 B12 1.765056 1_555
B1 B9 1.765067 1_555
B1 Ni2 2.079307 1_555
B1 U1 2.809195 1_556
B1 U0 2.809243 1_666
B1 U2 2.840321 1_555
B1 U3 2.840347 1_655
B2 B6 1.745135 1_554
B2 Ni2 2.079631 1_555
B2 U0 2.809318 1_655
B2 U1 2.809365 1_545
B2 U2 2.840232 1_555
B2 U3 2.840283 1_655
B3 B7 1.745136 1_556
B3 Ni3 2.079633 1_555
B3 U1 2.809333 1_456
B3 U0 2.809356 1_566
B3 U3 2.840259 1_555
B3 U2 2.840262 1_455
B4 B6 1.668276 1_565
B4 B9 1.765073 1_555
B4 Ni1 2.079306 1_555
B4 U1 2.809206 1_556
B4 U0 2.809221 1_666
B4 U3 2.840322 1_555
B4 U2 2.840344 1_565
B5 B7 1.668273 1_545
B5 B8 1.765089 1_555
B5 Ni0 2.079304 1_555
B5 U0 2.809197 1_555
B5 U1 2.809240 1_445
B5 U3 2.840318 1_545
B5 U2 2.840342 1_555
B6 Ni0 2.079630 1_555
B6 U1 2.809333 1_546
B6 U0 2.809343 1_656
B6 U3 2.840250 1_545
B6 U2 2.840271 1_555
B7 Ni1 2.079628 1_555
B7 U1 2.809326 1_455
B7 U0 2.809353 1_565
B7 U3 2.840206 1_555
B7 U2 2.840310 1_565
B8 Ni3 2.170018 1_555
B8 Ni0 2.170071 1_555
B8 U1 2.747738 1_556
B8 U3 2.784464 1_555
B8 U2 2.784510 1_555
B8 U0 2.882709 1_555
B9 Ni2 2.170048 1_555
B9 Ni1 2.170088 1_555
B9 U1 2.747719 1_555
B9 U3 2.784467 1_655
B9 U2 2.784510 1_565
B9 U0 2.882725 1_666
B10 B15 1.696661 1_545
B10 B6 1.764938 1_554
B10 B2 1.764968 1_555
B10 Ni0 2.170293 1_554
B10 Ni2 2.170328 1_555
B10 U0 2.748222 1_555
B10 U2 2.784061 1_555
B10 U3 2.784090 1_544
B10 U1 2.882991 1_545
B11 B14 1.696666 1_455
B11 B7 1.764948 1_555
B11 B3 1.764952 1_554
B11 Ni1 2.170303 1_555
B11 Ni3 2.170305 1_554
B11 U0 2.748222 1_555
B11 U3 2.784052 1_555
B11 U2 2.784072 1_454
B11 U1 2.882969 1_455
B12 B8 1.696830 1_555
B12 B4 1.765054 1_555
B12 Ni1 2.170177 1_555
B12 Ni2 2.170209 1_555
B12 U0 2.747753 1_555
B12 U3 2.784467 1_555
B12 U2 2.784504 1_555
B12 U1 2.882723 1_556
B13 B9 1.696824 1_445
B13 B5 1.765039 1_555
B13 Ni0 2.170191 1_555
B13 Ni3 2.170238 1_555
B13 U0 2.747731 1_556
B13 U3 2.784473 1_545
B13 U2 2.784502 1_455
B13 U1 2.882740 1_445
B14 B2 1.764944 1_555
B14 B6 1.764977 1_554
B14 Ni2 2.170142 1_555
B14 Ni0 2.170185 1_554
B14 U1 2.748241 1_555
B14 U2 2.784062 1_554
B14 U3 2.784070 1_655
B14 U0 2.882927 1_655
B15 B3 1.764960 1_554
B15 B7 1.764969 1_555
B15 Ni3 2.170169 1_554
B15 Ni1 2.170174 1_555
B15 U1 2.748239 1_555
B15 U3 2.784068 1_554
B15 U2 2.784089 1_565
B15 U0 2.882952 1_565
