# generated using pymatgen
data_Ta2Se3
_symmetry_space_group_name_H-M   'P 1'
_cell_length_a   6.85128766
_cell_length_b   13.24764526
_cell_length_c   18.55156795
_cell_angle_alpha   104.45283998
_cell_angle_beta   90.00000000
_cell_angle_gamma   90.00000000
_symmetry_Int_Tables_number   1
_chemical_formula_structural   Ta2Se3
_chemical_formula_sum   'Ta32 Se48'
_cell_volume   1630.51724152
_cell_formula_units_Z   16
loop_
 _symmetry_equiv_pos_site_id
 _symmetry_equiv_pos_as_xyz
  1  'x, y, z'
loop_
 _atom_site_type_symbol
 _atom_site_label
 _atom_site_symmetry_multiplicity
 _atom_site_fract_x
 _atom_site_fract_y
 _atom_site_fract_z
 _atom_site_occupancy
  Ta  Ta0_0  1  0.12500000  0.05655176  0.31648905  1
  Ta  Ta0_1  1  0.12500000  0.05655176  0.81648905  1
  Ta  Ta0_2  1  0.12500000  0.55655176  0.31648905  1
  Ta  Ta0_3  1  0.12500000  0.55655176  0.81648904  1
  Ta  Ta0_4  1  0.62500000  0.05655176  0.31648905  1
  Ta  Ta0_5  1  0.62500000  0.05655176  0.81648905  1
  Ta  Ta0_6  1  0.62500000  0.55655176  0.31648905  1
  Ta  Ta0_7  1  0.62500000  0.55655176  0.81648904  1
  Ta  Ta1_0  1  0.37500000  0.44344824  0.18351096  1
  Ta  Ta1_1  1  0.37500000  0.44344824  0.68351096  1
  Ta  Ta1_2  1  0.37500000  0.94344824  0.18351096  1
  Ta  Ta1_3  1  0.37500000  0.94344824  0.68351095  1
  Ta  Ta1_4  1  0.87500000  0.44344824  0.18351096  1
  Ta  Ta1_5  1  0.87500000  0.44344824  0.68351096  1
  Ta  Ta1_6  1  0.87500000  0.94344824  0.18351096  1
  Ta  Ta1_7  1  0.87500000  0.94344824  0.68351095  1
  Ta  Ta2_0  1  0.12500000  0.16235672  0.00049386  1
  Ta  Ta2_1  1  0.12500000  0.16235672  0.50049386  1
  Ta  Ta2_2  1  0.12500000  0.66235671  0.00049386  1
  Ta  Ta2_3  1  0.12500000  0.66235671  0.50049386  1
  Ta  Ta2_4  1  0.62500000  0.16235672  0.00049386  1
  Ta  Ta2_5  1  0.62500000  0.16235672  0.50049386  1
  Ta  Ta2_6  1  0.62500000  0.66235671  0.00049386  1
  Ta  Ta2_7  1  0.62500000  0.66235671  0.50049386  1
  Ta  Ta3_0  1  0.37500000  0.33764328  0.49950614  1
  Ta  Ta3_1  1  0.37500000  0.33764328  0.99950614  1
  Ta  Ta3_2  1  0.37500000  0.83764328  0.49950614  1
  Ta  Ta3_3  1  0.37500000  0.83764328  0.99950614  1
  Ta  Ta3_4  1  0.87500000  0.33764328  0.49950614  1
  Ta  Ta3_5  1  0.87500000  0.33764328  0.99950614  1
  Ta  Ta3_6  1  0.87500000  0.83764328  0.49950614  1
  Ta  Ta3_7  1  0.87500000  0.83764328  0.99950614  1
  Se  Se0_0  1  0.12500000  0.36418033  0.25597218  1
  Se  Se0_1  1  0.12500000  0.36418032  0.75597218  1
  Se  Se0_2  1  0.12500000  0.86418033  0.25597218  1
  Se  Se0_3  1  0.12500000  0.86418032  0.75597218  1
  Se  Se0_4  1  0.62500000  0.36418033  0.25597218  1
  Se  Se0_5  1  0.62500000  0.36418032  0.75597218  1
  Se  Se0_6  1  0.62500000  0.86418033  0.25597218  1
  Se  Se0_7  1  0.62500000  0.86418032  0.75597218  1
  Se  Se1_0  1  0.37500000  0.13581967  0.24402782  1
  Se  Se1_1  1  0.37500000  0.13581968  0.74402782  1
  Se  Se1_2  1  0.37500000  0.63581967  0.24402782  1
  Se  Se1_3  1  0.37500000  0.63581967  0.74402782  1
  Se  Se1_4  1  0.87500000  0.13581967  0.24402782  1
  Se  Se1_5  1  0.87500000  0.13581968  0.74402782  1
  Se  Se1_6  1  0.87500000  0.63581967  0.24402782  1
  Se  Se1_7  1  0.87500000  0.63581967  0.74402782  1
  Se  Se2_0  1  0.12500000  0.48366699  0.07885197  1
  Se  Se2_1  1  0.12500000  0.48366699  0.57885197  1
  Se  Se2_2  1  0.12500000  0.98366699  0.07885197  1
  Se  Se2_3  1  0.12500000  0.98366699  0.57885197  1
  Se  Se2_4  1  0.62500000  0.48366699  0.07885197  1
  Se  Se2_5  1  0.62500000  0.48366699  0.57885197  1
  Se  Se2_6  1  0.62500000  0.98366699  0.07885197  1
  Se  Se2_7  1  0.62500000  0.98366699  0.57885197  1
  Se  Se3_0  1  0.37500000  0.01633301  0.42114803  1
  Se  Se3_1  1  0.37500000  0.01633301  0.92114803  1
  Se  Se3_2  1  0.37500000  0.51633301  0.42114803  1
  Se  Se3_3  1  0.37500000  0.51633301  0.92114803  1
  Se  Se3_4  1  0.87500000  0.01633301  0.42114803  1
  Se  Se3_5  1  0.87500000  0.01633301  0.92114803  1
  Se  Se3_6  1  0.87500000  0.51633301  0.42114803  1
  Se  Se3_7  1  0.87500000  0.51633301  0.92114803  1
  Se  Se4_0  1  0.37500000  0.23780957  0.10248085  1
  Se  Se4_1  1  0.37500000  0.23780957  0.60248084  1
  Se  Se4_2  1  0.37500000  0.73780956  0.10248085  1
  Se  Se4_3  1  0.37500000  0.73780957  0.60248085  1
  Se  Se4_4  1  0.87500000  0.23780957  0.10248085  1
  Se  Se4_5  1  0.87500000  0.23780957  0.60248084  1
  Se  Se4_6  1  0.87500000  0.73780956  0.10248085  1
  Se  Se4_7  1  0.87500000  0.73780957  0.60248085  1
  Se  Se5_0  1  0.12500000  0.26219043  0.39751916  1
  Se  Se5_1  1  0.12500000  0.26219043  0.89751915  1
  Se  Se5_2  1  0.12500000  0.76219043  0.39751916  1
  Se  Se5_3  1  0.12500000  0.76219043  0.89751916  1
  Se  Se5_4  1  0.62500000  0.26219043  0.39751916  1
  Se  Se5_5  1  0.62500000  0.26219043  0.89751915  1
  Se  Se5_6  1  0.62500000  0.76219043  0.39751916  1
  Se  Se5_7  1  0.62500000  0.76219043  0.89751916  1
loop_
_geom_bond_atom_site_label_1
_geom_bond_atom_site_label_2
_geom_bond_distance
_geom_bond_site_symmetry_2
Ta0_0 Ta1_2 3.069133 1_545
Ta0_0 Ta1_6 3.069133 1_445
Ta0_1 Ta1_3 3.069133 1_545
Ta0_1 Ta1_7 3.069133 1_445
Ta0_2 Ta1_0 3.069133 1_555
Ta0_2 Ta1_4 3.069133 1_455
Ta0_3 Ta1_1 3.069133 1_555
Ta0_3 Ta1_5 3.069133 1_455
Ta0_4 Ta1_6 3.069133 1_545
Ta0_4 Ta1_2 3.069133 1_545
Ta0_5 Ta1_7 3.069133 1_545
Ta0_5 Ta1_3 3.069133 1_545
Ta0_6 Ta1_4 3.069133 1_555
Ta0_6 Ta1_0 3.069133 1_555
Ta0_7 Ta1_5 3.069133 1_555
Ta0_7 Ta1_1 3.069133 1_555
Ta2_0 Ta3_1 2.889229 1_554
Ta2_0 Ta3_5 2.889229 1_454
Ta2_1 Ta3_0 2.889229 1_555
Ta2_1 Ta3_4 2.889229 1_455
Ta2_2 Ta3_3 2.889229 1_554
Ta2_2 Ta3_7 2.889229 1_454
Ta2_3 Ta3_2 2.889229 1_555
Ta2_3 Ta3_6 2.889229 1_455
Ta2_4 Ta3_5 2.889229 1_554
Ta2_4 Ta3_1 2.889229 1_554
Ta2_5 Ta3_4 2.889229 1_555
Ta2_5 Ta3_0 2.889229 1_555
Ta2_6 Ta3_7 2.889229 1_554
Ta2_6 Ta3_3 2.889229 1_554
Ta2_7 Ta3_6 2.889229 1_555
Ta2_7 Ta3_2 2.889229 1_555
Se0_0 Ta0_2 2.515340 1_555
Se0_0 Ta1_0 2.558945 1_555
Se0_0 Ta1_4 2.558945 1_455
Se0_0 Se5_0 3.239136 1_555
Se0_0 Se4_0 3.386023 1_555
Se0_0 Se4_4 3.386023 1_455
Se0_0 Se0_4 3.425644 1_555
Se0_0 Se0_4 3.425644 1_455
Se0_0 Se1_0 3.435160 1_555
Se0_0 Se1_4 3.435160 1_455
Se0_1 Ta0_3 2.515340 1_555
Se0_1 Ta1_1 2.558945 1_555
Se0_1 Ta1_5 2.558945 1_455
Se0_1 Se5_1 3.239136 1_555
Se0_1 Se4_1 3.386023 1_555
Se0_1 Se4_5 3.386023 1_455
Se0_1 Se0_5 3.425644 1_455
Se0_1 Se0_5 3.425644 1_555
Se0_1 Se1_1 3.435160 1_555
Se0_1 Se1_5 3.435160 1_455
Se0_2 Ta0_0 2.515340 1_565
Se0_2 Ta1_2 2.558945 1_555
Se0_2 Ta1_6 2.558945 1_455
Se0_2 Se5_2 3.239136 1_555
Se0_2 Se4_2 3.386023 1_555
Se0_2 Se4_6 3.386023 1_455
Se0_2 Se0_6 3.425644 1_455
Se0_2 Se0_6 3.425644 1_555
Se0_2 Se1_2 3.435160 1_555
Se0_2 Se1_6 3.435160 1_455
Se0_3 Ta0_1 2.515340 1_565
Se0_3 Ta1_3 2.558945 1_555
Se0_3 Ta1_7 2.558945 1_455
Se0_3 Se5_3 3.239136 1_555
Se0_3 Se4_3 3.386023 1_555
Se0_3 Se4_7 3.386023 1_455
Se0_3 Se0_7 3.425644 1_555
Se0_3 Se0_7 3.425644 1_455
Se0_3 Se1_3 3.435160 1_555
Se0_3 Se1_7 3.435160 1_455
Se0_4 Ta0_6 2.515340 1_555
Se0_4 Ta1_4 2.558945 1_555
Se0_4 Ta1_0 2.558945 1_555
Se0_4 Se5_4 3.239136 1_555
Se0_4 Se4_4 3.386023 1_555
Se0_4 Se4_0 3.386023 1_555
Se0_4 Se1_4 3.435160 1_555
Se0_4 Se1_0 3.435160 1_555
Se0_5 Ta0_7 2.515340 1_555
Se0_5 Ta1_5 2.558945 1_555
Se0_5 Ta1_1 2.558945 1_555
Se0_5 Se5_5 3.239136 1_555
Se0_5 Se4_5 3.386023 1_555
Se0_5 Se4_1 3.386023 1_555
Se0_5 Se1_5 3.435160 1_555
Se0_5 Se1_1 3.435160 1_555
Se0_6 Ta0_4 2.515340 1_565
Se0_6 Ta1_6 2.558945 1_555
Se0_6 Ta1_2 2.558945 1_555
Se0_6 Se5_6 3.239136 1_555
Se0_6 Se4_6 3.386023 1_555
Se0_6 Se4_2 3.386023 1_555
Se0_6 Se1_6 3.435160 1_555
Se0_6 Se1_2 3.435160 1_555
Se0_7 Ta0_5 2.515340 1_565
Se0_7 Ta1_7 2.558945 1_555
Se0_7 Ta1_3 2.558945 1_555
Se0_7 Se5_7 3.239136 1_555
Se0_7 Se4_7 3.386023 1_555
Se0_7 Se4_3 3.386023 1_555
Se0_7 Se1_7 3.435160 1_555
Se0_7 Se1_3 3.435160 1_555
Se1_0 Ta1_2 2.515340 1_545
Se1_0 Ta0_0 2.558945 1_555
Se1_0 Ta0_4 2.558945 1_555
Se1_0 Se4_0 3.239136 1_555
Se1_0 Se5_4 3.386023 1_555
Se1_0 Se5_0 3.386023 1_555
Se1_0 Se1_4 3.425644 1_555
Se1_0 Se1_4 3.425644 1_455
Se1_1 Ta1_3 2.515340 1_545
Se1_1 Ta0_1 2.558945 1_555
Se1_1 Ta0_5 2.558945 1_555
Se1_1 Se4_1 3.239136 1_555
Se1_1 Se5_1 3.386023 1_555
Se1_1 Se5_5 3.386023 1_555
Se1_1 Se1_5 3.425644 1_555
Se1_1 Se1_5 3.425644 1_455
Se1_2 Ta1_0 2.515340 1_555
Se1_2 Ta0_2 2.558945 1_555
Se1_2 Ta0_6 2.558945 1_555
Se1_2 Se4_2 3.239136 1_555
Se1_2 Se5_2 3.386023 1_555
Se1_2 Se5_6 3.386023 1_555
Se1_2 Se1_6 3.425644 1_555
Se1_2 Se1_6 3.425644 1_455
Se1_3 Ta1_1 2.515340 1_555
Se1_3 Ta0_3 2.558945 1_555
Se1_3 Ta0_7 2.558945 1_555
Se1_3 Se4_3 3.239136 1_555
Se1_3 Se5_3 3.386023 1_555
Se1_3 Se5_7 3.386023 1_555
Se1_3 Se1_7 3.425644 1_555
Se1_3 Se1_7 3.425644 1_455
Se1_4 Ta1_6 2.515340 1_545
Se1_4 Ta0_4 2.558945 1_555
Se1_4 Ta0_0 2.558945 1_655
Se1_4 Se4_4 3.239136 1_555
Se1_4 Se5_4 3.386023 1_555
Se1_4 Se5_0 3.386023 1_655
Se1_5 Ta1_7 2.515340 1_545
Se1_5 Ta0_5 2.558945 1_555
Se1_5 Ta0_1 2.558945 1_655
Se1_5 Se4_5 3.239136 1_555
Se1_5 Se5_5 3.386023 1_555
Se1_5 Se5_1 3.386023 1_655
Se1_6 Ta1_4 2.515340 1_555
Se1_6 Ta0_6 2.558945 1_555
Se1_6 Ta0_2 2.558945 1_655
Se1_6 Se4_6 3.239136 1_555
Se1_6 Se5_6 3.386023 1_555
Se1_6 Se5_2 3.386023 1_655
Se1_7 Ta1_5 2.515340 1_555
Se1_7 Ta0_7 2.558945 1_555
Se1_7 Ta0_3 2.558945 1_655
Se1_7 Se4_7 3.239136 1_555
Se1_7 Se5_7 3.386023 1_555
Se1_7 Se5_3 3.386023 1_655
Se2_0 Ta3_1 2.724207 1_554
Se2_0 Ta3_5 2.724207 1_454
Se2_0 Ta1_0 2.739304 1_555
Se2_0 Ta1_4 2.739304 1_455
Se2_0 Ta2_2 3.071574 1_555
Se2_0 Se2_4 3.425644 1_555
Se2_0 Se2_4 3.425644 1_455
Se2_0 Se3_3 3.508913 1_554
Se2_0 Se3_7 3.508913 1_454
Se2_0 Se4_2 3.704659 1_555
Se2_0 Se4_6 3.704659 1_455
Se2_1 Ta3_0 2.724207 1_555
Se2_1 Ta3_4 2.724207 1_455
Se2_1 Ta1_1 2.739304 1_555
Se2_1 Ta1_5 2.739304 1_455
Se2_1 Ta2_3 3.071574 1_555
Se2_1 Se2_5 3.425644 1_455
Se2_1 Se2_5 3.425644 1_555
Se2_1 Se3_2 3.508913 1_555
Se2_1 Se3_6 3.508913 1_455
Se2_1 Se4_3 3.704659 1_555
Se2_1 Se4_7 3.704659 1_455
Se2_2 Ta3_3 2.724207 1_554
Se2_2 Ta3_7 2.724207 1_454
Se2_2 Ta1_2 2.739304 1_555
Se2_2 Ta1_6 2.739304 1_455
Se2_2 Ta2_0 3.071574 1_565
Se2_2 Se2_6 3.425644 1_455
Se2_2 Se2_6 3.425644 1_555
Se2_2 Se3_1 3.508913 1_564
Se2_2 Se3_5 3.508913 1_464
Se2_2 Se4_0 3.704659 1_565
Se2_2 Se4_4 3.704659 1_465
Se2_3 Ta3_2 2.724207 1_555
Se2_3 Ta3_6 2.724207 1_455
Se2_3 Ta1_3 2.739304 1_555
Se2_3 Ta1_7 2.739304 1_455
Se2_3 Ta2_1 3.071574 1_565
Se2_3 Se2_7 3.425644 1_555
Se2_3 Se2_7 3.425644 1_455
Se2_3 Se3_0 3.508913 1_565
Se2_3 Se3_4 3.508913 1_465
Se2_3 Se4_1 3.704659 1_565
Se2_3 Se4_5 3.704659 1_465
Se2_4 Ta3_5 2.724207 1_554
Se2_4 Ta3_1 2.724207 1_554
Se2_4 Ta1_4 2.739304 1_555
Se2_4 Ta1_0 2.739304 1_555
Se2_4 Ta2_6 3.071574 1_555
Se2_4 Se3_7 3.508913 1_554
Se2_4 Se3_3 3.508913 1_554
Se2_4 Se4_6 3.704659 1_555
Se2_4 Se4_2 3.704659 1_555
Se2_5 Ta3_4 2.724207 1_555
Se2_5 Ta3_0 2.724207 1_555
Se2_5 Ta1_5 2.739304 1_555
Se2_5 Ta1_1 2.739304 1_555
Se2_5 Ta2_7 3.071574 1_555
Se2_5 Se3_6 3.508913 1_555
Se2_5 Se3_2 3.508913 1_555
Se2_5 Se4_7 3.704659 1_555
Se2_5 Se4_3 3.704659 1_555
Se2_6 Ta3_7 2.724207 1_554
Se2_6 Ta3_3 2.724207 1_554
Se2_6 Ta1_6 2.739304 1_555
Se2_6 Ta1_2 2.739304 1_555
Se2_6 Ta2_4 3.071574 1_565
Se2_6 Se3_5 3.508913 1_564
Se2_6 Se3_1 3.508913 1_564
Se2_6 Se4_4 3.704659 1_565
Se2_6 Se4_0 3.704659 1_565
Se2_7 Ta3_6 2.724207 1_555
Se2_7 Ta3_2 2.724207 1_555
Se2_7 Ta1_7 2.739304 1_555
Se2_7 Ta1_3 2.739304 1_555
Se2_7 Ta2_5 3.071574 1_565
Se2_7 Se3_4 3.508913 1_565
Se2_7 Se3_0 3.508913 1_565
Se2_7 Se4_5 3.704659 1_565
Se2_7 Se4_1 3.704659 1_565
Se3_0 Ta2_1 2.724207 1_555
Se3_0 Ta2_5 2.724207 1_555
Se3_0 Ta0_0 2.739304 1_555
Se3_0 Ta0_4 2.739304 1_555
Se3_0 Ta3_2 3.071574 1_545
Se3_0 Se3_4 3.425644 1_555
Se3_0 Se3_4 3.425644 1_455
Se3_0 Se5_2 3.704659 1_545
Se3_0 Se5_6 3.704659 1_545
Se3_1 Ta2_0 2.724207 1_556
Se3_1 Ta2_4 2.724207 1_556
Se3_1 Ta0_1 2.739304 1_555
Se3_1 Ta0_5 2.739304 1_555
Se3_1 Ta3_3 3.071574 1_545
Se3_1 Se3_5 3.425644 1_555
Se3_1 Se3_5 3.425644 1_455
Se3_1 Se5_3 3.704659 1_545
Se3_1 Se5_7 3.704659 1_545
Se3_2 Ta2_3 2.724207 1_555
Se3_2 Ta2_7 2.724207 1_555
Se3_2 Ta0_2 2.739304 1_555
Se3_2 Ta0_6 2.739304 1_555
Se3_2 Ta3_0 3.071574 1_555
Se3_2 Se3_6 3.425644 1_555
Se3_2 Se3_6 3.425644 1_455
Se3_2 Se5_0 3.704659 1_555
Se3_2 Se5_4 3.704659 1_555
Se3_3 Ta2_2 2.724207 1_556
Se3_3 Ta2_6 2.724207 1_556
Se3_3 Ta0_3 2.739304 1_555
Se3_3 Ta0_7 2.739304 1_555
Se3_3 Ta3_1 3.071574 1_555
Se3_3 Se3_7 3.425644 1_555
Se3_3 Se3_7 3.425644 1_455
Se3_3 Se5_1 3.704659 1_555
Se3_3 Se5_5 3.704659 1_555
Se3_4 Ta2_5 2.724207 1_555
Se3_4 Ta2_1 2.724207 1_655
Se3_4 Ta0_4 2.739304 1_555
Se3_4 Ta0_0 2.739304 1_655
Se3_4 Ta3_6 3.071574 1_545
Se3_4 Se5_6 3.704659 1_545
Se3_4 Se5_2 3.704659 1_645
Se3_5 Ta2_4 2.724207 1_556
Se3_5 Ta2_0 2.724207 1_656
Se3_5 Ta0_5 2.739304 1_555
Se3_5 Ta0_1 2.739304 1_655
Se3_5 Ta3_7 3.071574 1_545
Se3_5 Se5_7 3.704659 1_545
Se3_5 Se5_3 3.704659 1_645
Se3_6 Ta2_7 2.724207 1_555
Se3_6 Ta2_3 2.724207 1_655
Se3_6 Ta0_6 2.739304 1_555
Se3_6 Ta0_2 2.739304 1_655
Se3_6 Ta3_4 3.071574 1_555
Se3_6 Se5_4 3.704659 1_555
Se3_6 Se5_0 3.704659 1_655
Se3_7 Ta2_6 2.724207 1_556
Se3_7 Ta2_2 2.724207 1_656
Se3_7 Ta0_7 2.739304 1_555
Se3_7 Ta0_3 2.739304 1_655
Se3_7 Ta3_5 3.071574 1_555
Se3_7 Se5_5 3.704659 1_555
Se3_7 Se5_1 3.704659 1_655
Se4_0 Ta2_0 2.562930 1_555
Se4_0 Ta2_4 2.562930 1_555
Se4_0 Ta3_1 2.580648 1_554
Se4_0 Ta1_0 2.763507 1_555
Se4_0 Se4_4 3.425644 1_555
Se4_0 Se4_4 3.425644 1_455
Se4_1 Ta2_1 2.562930 1_555
Se4_1 Ta2_5 2.562930 1_555
Se4_1 Ta3_0 2.580648 1_555
Se4_1 Ta1_1 2.763507 1_555
Se4_1 Se4_5 3.425644 1_555
Se4_1 Se4_5 3.425644 1_455
Se4_2 Ta2_2 2.562930 1_555
Se4_2 Ta2_6 2.562930 1_555
Se4_2 Ta3_3 2.580648 1_554
Se4_2 Ta1_2 2.763507 1_555
Se4_2 Se4_6 3.425644 1_555
Se4_2 Se4_6 3.425644 1_455
Se4_3 Ta2_3 2.562930 1_555
Se4_3 Ta2_7 2.562930 1_555
Se4_3 Ta3_2 2.580648 1_555
Se4_3 Ta1_3 2.763507 1_555
Se4_3 Se4_7 3.425644 1_555
Se4_3 Se4_7 3.425644 1_455
Se4_4 Ta2_4 2.562930 1_555
Se4_4 Ta2_0 2.562930 1_655
Se4_4 Ta3_5 2.580648 1_554
Se4_4 Ta1_4 2.763507 1_555
Se4_5 Ta2_5 2.562930 1_555
Se4_5 Ta2_1 2.562930 1_655
Se4_5 Ta3_4 2.580648 1_555
Se4_5 Ta1_5 2.763507 1_555
Se4_6 Ta2_6 2.562930 1_555
Se4_6 Ta2_2 2.562930 1_655
Se4_6 Ta3_7 2.580648 1_554
Se4_6 Ta1_6 2.763507 1_555
Se4_7 Ta2_7 2.562930 1_555
Se4_7 Ta2_3 2.562930 1_655
Se4_7 Ta3_6 2.580648 1_555
Se4_7 Ta1_7 2.763507 1_555
Se5_0 Ta3_0 2.562930 1_555
Se5_0 Ta3_4 2.562930 1_455
Se5_0 Ta2_1 2.580648 1_555
Se5_0 Ta0_0 2.763507 1_555
Se5_0 Se5_4 3.425644 1_455
Se5_0 Se5_4 3.425644 1_555
Se5_1 Ta3_1 2.562930 1_555
Se5_1 Ta3_5 2.562930 1_455
Se5_1 Ta2_0 2.580648 1_556
Se5_1 Ta0_1 2.763507 1_555
Se5_1 Se5_5 3.425644 1_555
Se5_1 Se5_5 3.425644 1_455
Se5_2 Ta3_2 2.562930 1_555
Se5_2 Ta3_6 2.562930 1_455
Se5_2 Ta2_3 2.580648 1_555
Se5_2 Ta0_2 2.763507 1_555
Se5_2 Se5_6 3.425644 1_555
Se5_2 Se5_6 3.425644 1_455
Se5_3 Ta3_3 2.562930 1_555
Se5_3 Ta3_7 2.562930 1_455
Se5_3 Ta2_2 2.580648 1_556
Se5_3 Ta0_3 2.763507 1_555
Se5_3 Se5_7 3.425644 1_455
Se5_3 Se5_7 3.425644 1_555
Se5_4 Ta3_4 2.562930 1_555
Se5_4 Ta3_0 2.562930 1_555
Se5_4 Ta2_5 2.580648 1_555
Se5_4 Ta0_4 2.763507 1_555
Se5_5 Ta3_5 2.562930 1_555
Se5_5 Ta3_1 2.562930 1_555
Se5_5 Ta2_4 2.580648 1_556
Se5_5 Ta0_5 2.763507 1_555
Se5_6 Ta3_6 2.562930 1_555
Se5_6 Ta3_2 2.562930 1_555
Se5_6 Ta2_7 2.580648 1_555
Se5_6 Ta0_6 2.763507 1_555
Se5_7 Ta3_7 2.562930 1_555
Se5_7 Ta3_3 2.562930 1_555
Se5_7 Ta2_6 2.580648 1_556
Se5_7 Ta0_7 2.763507 1_555
