# generated using pymatgen
data_LiAg2Ge
_symmetry_space_group_name_H-M   'P 1'
_cell_length_a   4.49598549
_cell_length_b   4.49598552
_cell_length_c   4.49598559
_cell_angle_alpha   59.99999202
_cell_angle_beta   59.99999184
_cell_angle_gamma   59.99999908
_symmetry_Int_Tables_number   1
_chemical_formula_structural   LiAg2Ge
_chemical_formula_sum   'Li1 Ag2 Ge1'
_cell_volume   64.26280251
_cell_formula_units_Z   1
loop_
 _symmetry_equiv_pos_site_id
 _symmetry_equiv_pos_as_xyz
  1  'x, y, z'
loop_
 _atom_site_type_symbol
 _atom_site_label
 _atom_site_symmetry_multiplicity
 _atom_site_fract_x
 _atom_site_fract_y
 _atom_site_fract_z
 _atom_site_occupancy
  Li  Li0  1  0.50000000  0.50000000  0.50000000  1
  Ag  Ag0  1  0.25000000  0.25000000  0.25000000  1
  Ag  Ag1  1  0.75000000  0.75000000  0.75000000  1
  Ge  Ge0  1  -0.00000000  0.00000000  0.00000000  1
loop_
_geom_bond_atom_site_label_1
_geom_bond_atom_site_label_2
_geom_bond_distance
_geom_bond_site_symmetry_2
Ag0 Ge0 2.753217 1_556
Ag0 Li0 2.753217 1_554
Ag0 Li0 2.753217 1_455
Ag0 Ge0 2.753217 1_655
Ag0 Ge0 2.753217 1_565
Ag0 Li0 2.753217 1_545
Ag0 Li0 2.753218 1_555
Ag0 Ge0 2.753218 1_555
Ag0 Ag1 3.179141 1_445
Ag0 Ag1 3.179141 1_554
Ag0 Ag1 3.179142 1_545
Ag0 Ag1 3.179142 1_454
Ag0 Ag1 3.179142 1_544
Ag0 Ag1 3.179142 1_455
Ag1 Ge0 2.753217 1_665
Ag1 Li0 2.753217 1_556
Ag1 Li0 2.753217 1_655
Ag1 Ge0 2.753217 1_566
Ag1 Li0 2.753217 1_565
Ag1 Ge0 2.753217 1_656
Ag1 Li0 2.753218 1_555
Ag1 Ge0 2.753218 1_666
Ge0 Li0 3.179141 1_554
Ge0 Li0 3.179141 1_445
Ge0 Li0 3.179142 1_544
Ge0 Li0 3.179142 1_545
Ge0 Li0 3.179142 1_455
Ge0 Li0 3.179142 1_454
