# generated using pymatgen
data_LiLu2Al
_symmetry_space_group_name_H-M   'P 1'
_cell_length_a   5.01775704
_cell_length_b   5.02527517
_cell_length_c   5.01050963
_cell_angle_alpha   60.02533914
_cell_angle_beta   60.14695281
_cell_angle_gamma   59.85675501
_symmetry_Int_Tables_number   1
_chemical_formula_structural   LiLu2Al
_chemical_formula_sum   'Li1 Lu2 Al1'
_cell_volume   89.35648690
_cell_formula_units_Z   1
loop_
 _symmetry_equiv_pos_site_id
 _symmetry_equiv_pos_as_xyz
  1  'x, y, z'
loop_
 _atom_site_type_symbol
 _atom_site_label
 _atom_site_symmetry_multiplicity
 _atom_site_fract_x
 _atom_site_fract_y
 _atom_site_fract_z
 _atom_site_occupancy
  Li  Li0  1  0.74997770  0.75004852  0.75002963  1
  Lu  Lu0  1  0.99998257  0.99990849  0.00002564  1
  Lu  Lu1  1  0.49990728  0.50001774  0.50010912  1
  Al  Al0  1  0.25013145  0.25002326  0.24983460  1
loop_
_geom_bond_atom_site_label_1
_geom_bond_atom_site_label_2
_geom_bond_distance
_geom_bond_site_symmetry_2
Li0 Lu0 3.071997 1_556
Li0 Lu1 3.072332 1_655
Li0 Lu0 3.072603 1_456
Li0 Lu1 3.072659 1_555
Li0 Lu1 3.073343 1_565
Li0 Lu0 3.073428 1_555
Li0 Lu1 3.073740 1_556
Li0 Lu0 3.074045 1_546
Lu0 Lu1 3.538389 1_564
Lu0 Lu1 3.538447 1_655
Lu0 Lu1 3.546918 1_654
Lu0 Lu1 3.548285 1_565
Lu0 Lu1 3.559077 1_555
Lu0 Lu1 3.559319 1_664
Al0 Lu0 3.072008 1_545
Al0 Lu1 3.072286 1_554
Al0 Lu1 3.072749 1_555
Al0 Lu0 3.072870 1_445
Al0 Lu0 3.072997 1_455
Al0 Lu1 3.073496 1_545
Al0 Lu1 3.073543 1_455
Al0 Lu0 3.074199 1_446
Al0 Li0 3.538272 1_454
Al0 Li0 3.538564 1_545
Al0 Li0 3.546820 1_544
Al0 Li0 3.548383 1_455
Al0 Li0 3.558741 1_554
Al0 Li0 3.559655 1_445
