# generated using pymatgen
data_LiCoSO4F
_symmetry_space_group_name_H-M   'P 1'
_cell_length_a   5.50462427
_cell_length_b   7.33762426
_cell_length_c   10.35307200
_cell_angle_alpha   76.55020351
_cell_angle_beta   78.89641656
_cell_angle_gamma   107.69157677
_symmetry_Int_Tables_number   1
_chemical_formula_structural   LiCoSO4F
_chemical_formula_sum   'Li4 Co4 S4 O16 F4'
_cell_volume   371.49747850
_cell_formula_units_Z   4
loop_
 _symmetry_equiv_pos_site_id
 _symmetry_equiv_pos_as_xyz
  1  'x, y, z'
loop_
 _atom_site_type_symbol
 _atom_site_label
 _atom_site_symmetry_multiplicity
 _atom_site_fract_x
 _atom_site_fract_y
 _atom_site_fract_z
 _atom_site_occupancy
  Li  Li0  1  0.49326400  0.65343300  0.13294700  1
  Li  Li1  1  0.99308600  0.15428200  0.63286800  1
  Li  Li2  1  0.00691300  0.84571500  0.36713300  1
  Li  Li3  1  0.50673500  0.34656700  0.86705200  1
  Co  Co0  1  0.50000000  0.00000100  0.50000000  1
  Co  Co1  1  0.00000000  0.00000000  0.00000000  1
  Co  Co2  1  0.00000000  0.50000000  0.00000000  1
  Co  Co3  1  0.50000000  0.50000000  0.50000000  1
  S  S0  1  0.47251300  0.08304900  0.16316700  1
  S  S1  1  0.97406500  0.58331600  0.66297300  1
  S  S2  1  0.02593600  0.41668400  0.33702700  1
  S  S3  1  0.52748700  0.91695100  0.83683300  1
  O  O0  1  0.44905300  0.10400500  0.30321800  1
  O  O1  1  0.95054000  0.60453800  0.80301500  1
  O  O2  1  0.04946100  0.39546300  0.19698500  1
  O  O3  1  0.55094700  0.89599600  0.69678200  1
  O  O4  1  0.60030100  0.28473300  0.05465500  1
  O  O5  1  0.10208200  0.78470000  0.55404400  1
  O  O6  1  0.89791800  0.21530000  0.44595600  1
  O  O7  1  0.39969900  0.71526700  0.94534500  1
  O  O8  1  0.19296600  0.98333600  0.15934800  1
  O  O9  1  0.69450900  0.48396300  0.65926500  1
  O  O10  1  0.30549200  0.51603700  0.34073500  1
  O  O11  1  0.80703400  0.01666400  0.84065200  1
  O  O12  1  0.62688200  0.95272700  0.13774500  1
  O  O13  1  0.12789900  0.45257000  0.63794300  1
  O  O14  1  0.87210100  0.54743100  0.36205700  1
  O  O15  1  0.37311800  0.04727300  0.86225500  1
  F  F0  1  0.85015000  0.69582500  0.05856200  1
  F  F1  1  0.35019100  0.19620400  0.55844000  1
  F  F2  1  0.64980900  0.80379500  0.44156100  1
  F  F3  1  0.14985000  0.30417500  0.94143700  1
loop_
_geom_bond_atom_site_label_1
_geom_bond_atom_site_label_2
_geom_bond_distance
_geom_bond_site_symmetry_2
Li0 O10 2.052783 1_555
Li0 O7 2.088271 1_554
Li0 O12 2.109364 1_555
Li0 O2 2.443865 1_555
Li1 O11 2.051483 1_555
Li1 O6 2.085553 1_555
Li1 O13 2.103641 1_655
Li1 O3 2.438433 1_545
Li2 O8 2.051495 1_555
Li2 O5 2.085544 1_555
Li2 O14 2.103617 1_455
Li2 O0 2.438448 1_565
Li3 O9 2.052776 1_555
Li3 O4 2.088283 1_556
Li3 O15 2.109360 1_555
Li3 O1 2.443877 1_555
Co0 F1 2.013287 1_555
Co0 F2 2.013303 1_545
Co0 O0 2.106778 1_555
Co0 O3 2.106779 1_545
Co0 O6 2.149465 1_555
Co0 O5 2.149470 1_545
Co1 F3 2.021978 1_554
Co1 F0 2.021979 1_445
Co1 O8 2.127189 1_545
Co1 O11 2.127189 1_454
Co1 O15 2.140366 1_554
Co1 O12 2.140366 1_445
Co2 F0 2.011384 1_455
Co2 F3 2.011388 1_554
Co2 O1 2.105882 1_454
Co2 O2 2.105883 1_555
Co2 O7 2.156029 1_554
Co2 O4 2.156029 1_455
Co3 F2 2.019483 1_555
Co3 F1 2.019489 1_555
Co3 O10 2.131983 1_555
Co3 O9 2.131987 1_555
Co3 O14 2.136574 1_555
Co3 O13 2.136577 1_555
O0 S0 1.478636 1_555
O1 S1 1.479220 1_555
O2 S2 1.479217 1_555
O3 S3 1.478633 1_555
O4 S0 1.495489 1_555
O5 S1 1.495910 1_455
O6 S2 1.495910 1_655
O7 S3 1.495489 1_555
O8 S0 1.502463 1_565
O9 S1 1.501642 1_555
O10 S2 1.501642 1_555
O11 S3 1.502463 1_545
O12 S0 1.493507 1_565
O13 S1 1.493147 1_455
O14 S2 1.493157 1_655
O15 S3 1.493507 1_545
F0 Li0 1.866446 1_555
F1 Li1 1.868497 1_455
F2 Li2 1.868496 1_655
F3 Li3 1.866441 1_555
