# generated using pymatgen
data_YC
_symmetry_space_group_name_H-M   'P 1'
_cell_length_a   6.22089400
_cell_length_b   6.22089400
_cell_length_c   6.22089400
_cell_angle_alpha   90.00000000
_cell_angle_beta   90.00000000
_cell_angle_gamma   90.00000000
_symmetry_Int_Tables_number   1
_chemical_formula_structural   YC
_chemical_formula_sum   'Y8 C8'
_cell_volume   240.74562520
_cell_formula_units_Z   8
loop_
 _symmetry_equiv_pos_site_id
 _symmetry_equiv_pos_as_xyz
  1  'x, y, z'
loop_
 _atom_site_type_symbol
 _atom_site_label
 _atom_site_symmetry_multiplicity
 _atom_site_fract_x
 _atom_site_fract_y
 _atom_site_fract_z
 _atom_site_occupancy
  Y  Y0_0  1  0.00000000  0.00000000  0.00000000  1
  Y  Y0_1  1  0.00000000  0.00000000  0.50000000  1
  Y  Y0_2  1  0.00000000  0.50000000  0.00000000  1
  Y  Y0_3  1  0.00000000  0.50000000  0.50000000  1
  Y  Y0_4  1  0.50000000  0.00000000  0.00000000  1
  Y  Y0_5  1  0.50000000  0.00000000  0.50000000  1
  Y  Y0_6  1  0.50000000  0.50000000  0.00000000  1
  Y  Y0_7  1  0.50000000  0.50000000  0.50000000  1
  C  C0_0  1  0.25000000  0.25000000  0.25000000  1
  C  C0_1  1  0.25000000  0.25000000  0.75000000  1
  C  C0_2  1  0.25000000  0.75000000  0.25000000  1
  C  C0_3  1  0.25000000  0.75000000  0.75000000  1
  C  C0_4  1  0.75000000  0.25000000  0.25000000  1
  C  C0_5  1  0.75000000  0.25000000  0.75000000  1
  C  C0_6  1  0.75000000  0.75000000  0.25000000  1
  C  C0_7  1  0.75000000  0.75000000  0.75000000  1
loop_
_geom_bond_atom_site_label_1
_geom_bond_atom_site_label_2
_geom_bond_distance
_geom_bond_site_symmetry_2
Y0_0 Y0_2 3.110447 1_545
Y0_0 Y0_2 3.110447 1_555
Y0_0 Y0_1 3.110447 1_554
Y0_0 Y0_4 3.110447 1_455
Y0_0 Y0_4 3.110447 1_555
Y0_0 Y0_1 3.110447 1_555
Y0_1 Y0_5 3.110447 1_555
Y0_1 Y0_3 3.110447 1_545
Y0_1 Y0_3 3.110447 1_555
Y0_1 Y0_5 3.110447 1_455
Y0_2 Y0_6 3.110447 1_555
Y0_2 Y0_3 3.110447 1_555
Y0_2 Y0_3 3.110447 1_554
Y0_2 Y0_6 3.110447 1_455
Y0_3 Y0_7 3.110447 1_455
Y0_3 Y0_7 3.110447 1_555
Y0_4 Y0_5 3.110447 1_555
Y0_4 Y0_6 3.110447 1_555
Y0_4 Y0_5 3.110447 1_554
Y0_4 Y0_6 3.110447 1_545
Y0_5 Y0_7 3.110447 1_545
Y0_5 Y0_7 3.110447 1_555
Y0_6 Y0_7 3.110447 1_554
Y0_6 Y0_7 3.110447 1_555
C0_0 Y0_6 2.693726 1_555
C0_0 Y0_0 2.693726 1_555
C0_0 Y0_3 2.693726 1_555
C0_0 Y0_4 2.693726 1_555
C0_0 Y0_7 2.693726 1_555
C0_0 Y0_1 2.693726 1_555
C0_0 Y0_2 2.693726 1_555
C0_0 Y0_5 2.693726 1_555
C0_0 C0_2 3.110447 1_555
C0_0 C0_1 3.110447 1_555
C0_0 C0_2 3.110447 1_545
C0_0 C0_4 3.110447 1_455
C0_0 C0_4 3.110447 1_555
C0_0 C0_1 3.110447 1_554
C0_1 Y0_3 2.693726 1_555
C0_1 Y0_4 2.693726 1_556
C0_1 Y0_6 2.693726 1_556
C0_1 Y0_1 2.693726 1_555
C0_1 Y0_2 2.693726 1_556
C0_1 Y0_7 2.693726 1_555
C0_1 Y0_0 2.693726 1_556
C0_1 Y0_5 2.693726 1_555
C0_1 C0_5 3.110447 1_555
C0_1 C0_3 3.110447 1_555
C0_1 C0_3 3.110447 1_545
C0_1 C0_5 3.110447 1_455
C0_2 Y0_6 2.693726 1_555
C0_2 Y0_3 2.693726 1_555
C0_2 Y0_0 2.693726 1_565
C0_2 Y0_5 2.693726 1_565
C0_2 Y0_4 2.693726 1_565
C0_2 Y0_1 2.693726 1_565
C0_2 Y0_7 2.693726 1_555
C0_2 Y0_2 2.693726 1_555
C0_2 C0_6 3.110447 1_455
C0_2 C0_3 3.110447 1_555
C0_2 C0_6 3.110447 1_555
C0_2 C0_3 3.110447 1_554
C0_3 Y0_3 2.693726 1_555
C0_3 Y0_6 2.693726 1_556
C0_3 Y0_0 2.693726 1_566
C0_3 Y0_1 2.693726 1_565
C0_3 Y0_2 2.693726 1_556
C0_3 Y0_7 2.693726 1_555
C0_3 Y0_4 2.693726 1_566
C0_3 Y0_5 2.693726 1_565
C0_3 C0_7 3.110447 1_455
C0_3 C0_7 3.110447 1_555
C0_4 Y0_6 2.693726 1_555
C0_4 Y0_3 2.693726 1_655
C0_4 Y0_4 2.693726 1_555
C0_4 Y0_7 2.693726 1_555
C0_4 Y0_0 2.693726 1_655
C0_4 Y0_2 2.693726 1_655
C0_4 Y0_1 2.693726 1_655
C0_4 Y0_5 2.693726 1_555
C0_4 C0_5 3.110447 1_554
C0_4 C0_5 3.110447 1_555
C0_4 C0_6 3.110447 1_545
C0_4 C0_6 3.110447 1_555
C0_5 Y0_3 2.693726 1_655
C0_5 Y0_0 2.693726 1_656
C0_5 Y0_4 2.693726 1_556
C0_5 Y0_6 2.693726 1_556
C0_5 Y0_7 2.693726 1_555
C0_5 Y0_1 2.693726 1_655
C0_5 Y0_2 2.693726 1_656
C0_5 Y0_5 2.693726 1_555
C0_5 C0_7 3.110447 1_545
C0_5 C0_7 3.110447 1_555
C0_6 Y0_6 2.693726 1_555
C0_6 Y0_1 2.693726 1_665
C0_6 Y0_3 2.693726 1_655
C0_6 Y0_4 2.693726 1_565
C0_6 Y0_0 2.693726 1_665
C0_6 Y0_7 2.693726 1_555
C0_6 Y0_2 2.693726 1_655
C0_6 Y0_5 2.693726 1_565
C0_6 C0_7 3.110447 1_554
C0_6 C0_7 3.110447 1_555
C0_7 Y0_3 2.693726 1_655
C0_7 Y0_6 2.693726 1_556
C0_7 Y0_5 2.693726 1_565
C0_7 Y0_7 2.693726 1_555
C0_7 Y0_0 2.693726 1_666
C0_7 Y0_1 2.693726 1_665
C0_7 Y0_4 2.693726 1_566
C0_7 Y0_2 2.693726 1_656
