# generated using pymatgen
data_Sc7CBr12
_symmetry_space_group_name_H-M   'P 1'
_cell_length_a   8.03310200
_cell_length_b   11.36052100
_cell_length_c   11.36052144
_cell_angle_alpha   120.00000164
_cell_angle_beta   90.00000000
_cell_angle_gamma   90.00000000
_symmetry_Int_Tables_number   1
_chemical_formula_structural   Sc7CBr12
_chemical_formula_sum   'Sc7 C1 Br12'
_cell_volume   897.86371349
_cell_formula_units_Z   1
loop_
 _symmetry_equiv_pos_site_id
 _symmetry_equiv_pos_as_xyz
  1  'x, y, z'
loop_
 _atom_site_type_symbol
 _atom_site_label
 _atom_site_symmetry_multiplicity
 _atom_site_fract_x
 _atom_site_fract_y
 _atom_site_fract_z
 _atom_site_occupancy
  Sc  Sc0  1  0.47821900  0.47821900  0.52178100  1
  Sc  Sc1  1  0.97771600  0.71394800  0.08948900  1
  Sc  Sc2  1  0.71394800  0.91051100  0.02228400  1
  Sc  Sc3  1  0.91051100  0.97771600  0.28605200  1
  Sc  Sc4  1  0.29470200  0.10390000  0.96103400  1
  Sc  Sc5  1  0.10390000  0.03896600  0.70529800  1
  Sc  Sc6  1  0.03896600  0.29470200  0.89610000  1
  C  C0  1  0.00057000  0.00057000  0.99943000  1
  Br  Br0  1  0.07690900  0.69496200  0.77298700  1
  Br  Br1  1  0.69496200  0.22701300  0.92309100  1
  Br  Br2  1  0.22701300  0.07690900  0.30503800  1
  Br  Br3  1  0.84163800  0.61958100  0.45411200  1
  Br  Br4  1  0.61958100  0.54588800  0.15836200  1
  Br  Br5  1  0.54588800  0.84163800  0.38041900  1
  Br  Br6  1  0.31101800  0.78095300  0.07462700  1
  Br  Br7  1  0.78095300  0.92537300  0.68898200  1
  Br  Br8  1  0.92537300  0.31101800  0.21904700  1
  Br  Br9  1  0.46600300  0.14904900  0.61271900  1
  Br  Br10  1  0.14904900  0.38728100  0.53399700  1
  Br  Br11  1  0.38728100  0.46600300  0.85095100  1
loop_
_geom_bond_atom_site_label_1
_geom_bond_atom_site_label_2
_geom_bond_distance
_geom_bond_site_symmetry_2
Sc1 Sc3 2.750602 1_555
Sc1 Sc2 3.429868 1_555
Sc2 Sc3 3.125322 1_555
Sc4 Sc5 3.031665 1_555
Sc4 Sc6 3.325972 1_555
Sc5 Sc6 2.667173 1_555
C0 Sc2 2.584793 1_446
C0 Sc4 2.768231 1_555
C0 Sc3 3.469709 1_446
Br0 C0 3.180615 1_565
Br0 Br10 3.230330 1_555
Br0 Sc1 3.582520 1_456
Br0 Br6 3.589751 1_556
Br0 Br3 3.784992 1_455
Br0 Sc2 3.947597 1_456
Br0 Br7 3.989092 1_455
Br0 Br11 4.008776 1_555
Br0 Sc0 4.192012 1_555
Br0 Sc5 4.349316 1_565
Br1 Sc6 2.925344 1_655
Br1 Br7 3.190553 1_545
Br1 Br4 3.309264 1_556
Br1 Br8 3.525967 1_556
Br1 Sc4 3.617069 1_555
Br1 Br9 3.671091 1_555
Br1 Br11 4.046881 1_555
Br2 Sc3 2.745469 1_445
Br2 Br6 3.132211 1_545
Br2 C0 3.619932 1_554
Br2 Br9 3.702794 1_555
Br2 Br5 4.089951 1_545
Br3 Br7 3.186877 1_555
Br3 Br8 3.242033 1_555
Br3 Br4 3.515502 1_555
Br3 Sc0 3.595472 1_555
Br3 Br5 3.849827 1_555
Br4 Br5 3.086621 1_555
Br4 Sc1 3.745404 1_555
Br4 Br8 3.933006 1_555
Br4 Br6 4.089091 1_555
Br5 Br9 3.218138 1_565
Br5 Br7 3.663886 1_555
Br5 Br6 3.702491 1_555
Br5 Sc3 3.711582 1_555
Br6 Sc1 2.811620 1_455
Br6 Sc2 3.724498 1_555
Br7 Sc5 2.861940 1_665
Br7 C0 3.642524 1_665
Br7 Sc2 3.910883 1_556
Br7 Br9 3.976214 1_565
Br8 C0 3.198289 1_654
Br8 Sc6 3.694239 1_654
Br8 Sc4 4.004183 1_654
Br8 Sc3 4.220602 1_545
Br9 Sc5 3.527983 1_555
Br9 Sc0 4.350224 1_555
Br10 Sc0 2.867408 1_555
Br10 Br2 3.227862 1_555
Br10 Br8 3.698822 1_455
Br10 Br11 3.769280 1_555
Br10 Br3 4.035032 1_455
Br10 Br9 4.126476 1_555
Br11 Br6 3.246918 1_556
Br11 Br9 3.308318 1_555
Br11 Sc6 3.588526 1_555
Br11 Br4 3.651436 1_556
Br11 Sc0 3.880215 1_555
