# generated using pymatgen
data_Na3Pt
_symmetry_space_group_name_H-M   'P 1'
_cell_length_a   6.38066030
_cell_length_b   6.38066030
_cell_length_c   5.15895000
_cell_angle_alpha   90.00000000
_cell_angle_beta   90.00000000
_cell_angle_gamma   120.00000312
_symmetry_Int_Tables_number   1
_chemical_formula_structural   Na3Pt
_chemical_formula_sum   'Na6 Pt2'
_cell_volume   181.89601499
_cell_formula_units_Z   2
loop_
 _symmetry_equiv_pos_site_id
 _symmetry_equiv_pos_as_xyz
  1  'x, y, z'
loop_
 _atom_site_type_symbol
 _atom_site_label
 _atom_site_symmetry_multiplicity
 _atom_site_fract_x
 _atom_site_fract_y
 _atom_site_fract_z
 _atom_site_occupancy
  Na  Na0  1  0.17822600  0.35645300  0.25000000  1
  Na  Na1  1  0.64354700  0.82177400  0.25000000  1
  Na  Na2  1  0.17822600  0.82177400  0.25000000  1
  Na  Na3  1  0.82177400  0.64354700  0.75000000  1
  Na  Na4  1  0.35645300  0.17822600  0.75000000  1
  Na  Na5  1  0.82177400  0.17822600  0.75000000  1
  Pt  Pt0  1  0.33333300  0.66666700  0.75000000  1
  Pt  Pt1  1  0.66666700  0.33333300  0.25000000  1
loop_
_geom_bond_atom_site_label_1
_geom_bond_atom_site_label_2
_geom_bond_distance
_geom_bond_site_symmetry_2
Na0 Na1 2.969055 1_555
Na0 Na2 2.969055 1_555
Na0 Pt0 3.097115 1_554
Na0 Pt0 3.097115 1_555
Na0 Pt1 3.192881 1_455
Na0 Pt1 3.192894 1_555
Na0 Na5 3.245514 1_455
Na0 Na5 3.245514 1_454
Na0 Na4 3.245521 1_555
Na0 Na4 3.245521 1_554
Na0 Na1 3.411605 1_445
Na0 Na2 3.411605 1_545
Na1 Na2 2.969055 1_555
Na1 Pt0 3.097115 1_554
Na1 Pt0 3.097115 1_555
Na1 Pt1 3.192881 1_565
Na1 Pt1 3.192894 1_555
Na1 Na5 3.245514 1_564
Na1 Na5 3.245514 1_565
Na1 Na3 3.245521 1_554
Na1 Na3 3.245521 1_555
Na1 Na2 3.411605 1_655
Na2 Pt0 3.097115 1_554
Na2 Pt0 3.097115 1_555
Na2 Pt1 3.192887 1_455
Na2 Pt1 3.192887 1_565
Na2 Na4 3.245514 1_564
Na2 Na4 3.245514 1_565
Na2 Na3 3.245514 1_455
Na2 Na3 3.245514 1_454
Na3 Na4 2.969055 1_555
Na3 Na5 2.969055 1_555
Na3 Pt1 3.097115 1_556
Na3 Pt1 3.097115 1_555
Na3 Pt0 3.192881 1_655
Na3 Pt0 3.192894 1_555
Na3 Na4 3.411605 1_665
Na3 Na5 3.411605 1_565
Na4 Na5 2.969055 1_555
Na4 Pt1 3.097115 1_555
Na4 Pt1 3.097115 1_556
Na4 Pt0 3.192881 1_545
Na4 Pt0 3.192894 1_555
Na4 Na5 3.411605 1_455
Na5 Pt1 3.097115 1_555
Na5 Pt1 3.097115 1_556
Na5 Pt0 3.192887 1_545
Na5 Pt0 3.192887 1_655
