# generated using pymatgen
data_KP2AuS7
_symmetry_space_group_name_H-M   'P 1'
_cell_length_a   6.32102440
_cell_length_b   6.32102440
_cell_length_c   15.26320450
_cell_angle_alpha   89.92448212
_cell_angle_beta   89.92448212
_cell_angle_gamma   100.60864614
_symmetry_Int_Tables_number   1
_chemical_formula_structural   KP2AuS7
_chemical_formula_sum   'K2 P4 Au2 S14'
_cell_volume   599.42163829
_cell_formula_units_Z   2
loop_
 _symmetry_equiv_pos_site_id
 _symmetry_equiv_pos_as_xyz
  1  'x, y, z'
loop_
 _atom_site_type_symbol
 _atom_site_label
 _atom_site_symmetry_multiplicity
 _atom_site_fract_x
 _atom_site_fract_y
 _atom_site_fract_z
 _atom_site_occupancy
  K  K0  1  0.75736000  0.24264000  0.25000000  1
  K  K1  1  0.24264000  0.75736000  0.75000000  1
  P  P0  1  0.35120700  0.67910500  0.13983400  1
  P  P1  1  0.32089500  0.64879300  0.36016600  1
  P  P2  1  0.64879300  0.32089500  0.86016600  1
  P  P3  1  0.67910500  0.35120700  0.63983400  1
  Au  Au0  1  0.00000000  0.50000000  0.00000000  1
  Au  Au1  1  0.50000000  0.00000000  0.50000000  1
  S  S0  1  0.66397000  0.72529200  0.15645600  1
  S  S1  1  0.33603000  0.27470800  0.84354400  1
  S  S2  1  0.27470800  0.33603000  0.34354400  1
  S  S3  1  0.72529200  0.66397000  0.65645600  1
  S  S4  1  0.20046700  0.36417800  0.11256300  1
  S  S5  1  0.63582200  0.79953300  0.38743700  1
  S  S6  1  0.79953300  0.63582200  0.88743700  1
  S  S7  1  0.36417800  0.20046700  0.61256300  1
  S  S8  1  0.22998900  0.83140300  0.03570200  1
  S  S9  1  0.16859700  0.77001100  0.46429800  1
  S  S10  1  0.77001100  0.16859700  0.96429800  1
  S  S11  1  0.83140300  0.22998900  0.53570200  1
  S  S12  1  0.19716500  0.80283500  0.25000000  1
  S  S13  1  0.80283500  0.19716500  0.75000000  1
loop_
_geom_bond_atom_site_label_1
_geom_bond_atom_site_label_2
_geom_bond_distance
_geom_bond_site_symmetry_2
K0 S4 3.467512 1_655
K0 S5 3.467512 1_545
K0 S2 3.514059 1_555
K0 S0 3.514059 1_555
K0 S2 3.519202 1_655
K0 S0 3.519202 1_545
K0 S12 4.079540 1_655
K0 S12 4.079540 1_545
K0 S12 4.278157 1_645
K0 S5 4.288701 1_555
K0 S4 4.288701 1_555
K0 S10 4.388580 1_554
K0 S11 4.388580 1_555
K1 S7 3.467512 1_565
K1 S6 3.467512 1_455
K1 S1 3.514059 1_555
K1 S3 3.514059 1_555
K1 S1 3.519202 1_565
K1 S3 3.519202 1_455
K1 S13 4.079540 1_565
K1 S13 4.079540 1_455
K1 S13 4.278157 1_465
K1 S6 4.288701 1_555
K1 S7 4.288701 1_555
K1 S8 4.388580 1_556
K1 S9 4.388580 1_555
P0 S0 1.961393 1_555
P0 S8 2.076240 1_555
P0 S4 2.085358 1_555
P0 S12 2.160260 1_555
P1 S2 1.961393 1_555
P1 S9 2.076240 1_555
P1 S5 2.085358 1_555
P1 S12 2.160260 1_555
P2 S1 1.961393 1_555
P2 S10 2.076240 1_555
P2 S6 2.085358 1_555
P2 S13 2.160260 1_555
P3 S3 1.961393 1_555
P3 S11 2.076240 1_555
P3 S7 2.085358 1_555
P3 S13 2.160260 1_555
Au0 S10 2.383777 1_454
Au0 S8 2.383777 1_555
Au0 S4 2.386829 1_555
Au0 S6 2.386829 1_454
Au1 S9 2.383777 1_545
Au1 S11 2.383777 1_555
Au1 S7 2.386829 1_555
Au1 S5 2.386829 1_545
