# generated using pymatgen
data_LaWN3
_symmetry_space_group_name_H-M   'P 1'
_cell_length_a   5.78445675
_cell_length_b   5.78445675
_cell_length_c   3.95800923
_cell_angle_alpha   90.00000000
_cell_angle_beta   90.00000000
_cell_angle_gamma   94.67472040
_symmetry_Int_Tables_number   1
_chemical_formula_structural   LaWN3
_chemical_formula_sum   'La2 W2 N6'
_cell_volume   131.99419892
_cell_formula_units_Z   2
loop_
 _symmetry_equiv_pos_site_id
 _symmetry_equiv_pos_as_xyz
  1  'x, y, z'
loop_
 _atom_site_type_symbol
 _atom_site_label
 _atom_site_symmetry_multiplicity
 _atom_site_fract_x
 _atom_site_fract_y
 _atom_site_fract_z
 _atom_site_occupancy
  La  La0  1  0.62144664  0.37855336  0.50000000  1
  La  La1  1  0.10194976  0.89805024  0.50000000  1
  W  W0  1  0.59350599  0.89249884  -0.00000000  1
  W  W1  1  0.10750116  0.40649401  -0.00000000  1
  N  N0  1  0.27521476  0.72478524  -0.00000000  1
  N  N1  1  0.84288814  0.15711186  -0.00000000  1
  N  N2  1  0.34736239  0.22467515  0.00000000  1
  N  N3  1  0.77532485  0.65263761  0.00000000  1
  N  N4  1  0.55488640  0.93665209  0.50000000  1
  N  N5  1  0.06334791  0.44511360  0.50000000  1
loop_
_geom_bond_atom_site_label_1
_geom_bond_atom_site_label_2
_geom_bond_distance
_geom_bond_site_symmetry_2
La0 N4 2.553775 1_545
La0 N5 2.553775 1_655
La0 N2 2.644296 1_556
La0 N3 2.644296 1_556
La0 N3 2.644296 1_555
La0 N2 2.644296 1_555
La0 N1 2.732289 1_556
La0 N1 2.732289 1_555
La0 N5 3.282185 1_555
La0 N4 3.282185 1_555
La1 N0 2.467625 1_555
La1 N0 2.467625 1_556
La1 N5 2.611295 1_555
La1 N4 2.611295 1_555
La1 N1 2.962039 1_465
La1 N1 2.962039 1_466
La1 N3 3.010669 1_455
La1 N2 3.010669 1_566
La1 N3 3.010669 1_456
La1 N2 3.010669 1_565
La1 N4 3.190434 1_455
La1 N5 3.190434 1_565
N0 W1 2.009931 1_555
N0 W0 2.009931 1_555
N0 N5 2.777111 1_555
N0 N4 2.777111 1_555
N0 N4 2.777111 1_554
N0 N5 2.777111 1_554
N1 W0 2.015909 1_545
N1 W1 2.015909 1_655
N1 N4 2.823429 1_544
N1 N4 2.823429 1_545
N1 N5 2.823429 1_655
N1 N5 2.823429 1_654
N2 W1 1.808048 1_555
N2 W0 2.482974 1_545
N3 W0 1.808048 1_555
N3 W1 2.482974 1_655
N4 W0 2.010198 1_556
N4 W0 2.010198 1_555
N5 W1 2.010198 1_555
N5 W1 2.010198 1_556
