# generated using pymatgen
data_RbCaO3
_symmetry_space_group_name_H-M   'P 1'
_cell_length_a   4.61662400
_cell_length_b   4.61662400
_cell_length_c   4.61662400
_cell_angle_alpha   90.00000000
_cell_angle_beta   90.00000000
_cell_angle_gamma   90.00000000
_symmetry_Int_Tables_number   1
_chemical_formula_structural   RbCaO3
_chemical_formula_sum   'Rb1 Ca1 O3'
_cell_volume   98.39510985
_cell_formula_units_Z   1
loop_
 _symmetry_equiv_pos_site_id
 _symmetry_equiv_pos_as_xyz
  1  'x, y, z'
loop_
 _atom_site_type_symbol
 _atom_site_label
 _atom_site_symmetry_multiplicity
 _atom_site_fract_x
 _atom_site_fract_y
 _atom_site_fract_z
 _atom_site_occupancy
  Rb  Rb0  1  0.00000000  0.00000000  0.00000000  1
  Ca  Ca0  1  0.50000000  0.50000000  0.50000000  1
  O  O0  1  0.50000000  0.50000000  0.00000000  1
  O  O1  1  0.50000000  0.00000000  0.50000000  1
  O  O2  1  0.00000000  0.50000000  0.50000000  1
loop_
_geom_bond_atom_site_label_1
_geom_bond_atom_site_label_2
_geom_bond_distance
_geom_bond_site_symmetry_2
Ca0 O0 2.308312 1_555
Ca0 O2 2.308312 1_555
Ca0 O1 2.308312 1_565
Ca0 O2 2.308312 1_655
Ca0 O0 2.308312 1_556
Ca0 O1 2.308312 1_555
O0 Rb0 3.264446 1_555
O0 Rb0 3.264446 1_565
O0 Rb0 3.264446 1_655
O0 Rb0 3.264446 1_665
O1 Rb0 3.264446 1_555
O1 Rb0 3.264446 1_556
O1 Rb0 3.264446 1_656
O1 Rb0 3.264446 1_655
O2 Rb0 3.264446 1_555
O2 Rb0 3.264446 1_556
O2 Rb0 3.264446 1_565
O2 Rb0 3.264446 1_566
