# generated using pymatgen
data_Ba2HfS4
_symmetry_space_group_name_H-M   'P 1'
_cell_length_a   4.94717783
_cell_length_b   4.94717791
_cell_length_c   8.66386342
_cell_angle_alpha   106.58585755
_cell_angle_beta   106.58585887
_cell_angle_gamma   90.00205759
_symmetry_Int_Tables_number   1
_chemical_formula_structural   Ba2HfS4
_chemical_formula_sum   'Ba2 Hf1 S4'
_cell_volume   193.99780296
_cell_formula_units_Z   1
loop_
 _symmetry_equiv_pos_site_id
 _symmetry_equiv_pos_as_xyz
  1  'x, y, z'
loop_
 _atom_site_type_symbol
 _atom_site_label
 _atom_site_symmetry_multiplicity
 _atom_site_fract_x
 _atom_site_fract_y
 _atom_site_fract_z
 _atom_site_occupancy
  Ba  Ba0  1  0.35778869  0.35778873  0.71560457  1
  Ba  Ba1  1  0.64221132  0.64221129  0.28439544  1
  Hf  Hf0  1  0.00000056  -0.00000052  -0.00000002  1
  S  S0  1  -0.00000016  0.50000024  -0.00000001  1
  S  S1  1  0.49999974  0.00000013  -0.00000000  1
  S  S2  1  0.83870201  0.83870214  0.67728256  1
  S  S3  1  0.16129785  0.16129799  0.32271746  1
loop_
_geom_bond_atom_site_label_1
_geom_bond_atom_site_label_2
_geom_bond_distance
_geom_bond_site_symmetry_2
Ba0 S3 3.114222 1_555
Ba0 S1 3.346560 1_556
Ba0 S0 3.346561 1_556
Ba0 S0 3.346821 1_656
Ba0 S1 3.346822 1_566
Ba0 S2 3.510786 1_445
Ba0 S2 3.511409 1_545
Ba0 S2 3.511409 1_455
Ba0 S2 3.511782 1_555
Ba1 S2 3.114222 1_555
Ba1 S0 3.346560 1_655
Ba1 S1 3.346561 1_565
Ba1 S1 3.346821 1_555
Ba1 S0 3.346822 1_555
Ba1 S3 3.510786 1_665
Ba1 S3 3.511409 1_655
Ba1 S3 3.511410 1_565
Ba1 S3 3.511782 1_555
Hf0 S1 2.473585 1_555
Hf0 S0 2.473585 1_545
Hf0 S0 2.473593 1_555
Hf0 S1 2.473593 1_455
Hf0 S2 2.558021 1_444
Hf0 S3 2.558022 1_555
