# generated using pymatgen
data_SnTe3
_symmetry_space_group_name_H-M   'P 1'
_cell_length_a   5.46058828
_cell_length_b   5.46058828
_cell_length_c   5.46058828
_cell_angle_alpha   60.00000000
_cell_angle_beta   60.00000000
_cell_angle_gamma   60.00000000
_symmetry_Int_Tables_number   1
_chemical_formula_structural   SnTe3
_chemical_formula_sum   'Sn1 Te3'
_cell_volume   115.13392209
_cell_formula_units_Z   1
loop_
 _symmetry_equiv_pos_site_id
 _symmetry_equiv_pos_as_xyz
  1  'x, y, z'
loop_
 _atom_site_type_symbol
 _atom_site_label
 _atom_site_symmetry_multiplicity
 _atom_site_fract_x
 _atom_site_fract_y
 _atom_site_fract_z
 _atom_site_occupancy
  Sn  Sn0  1  0.00000000  0.00000000  0.00000000  1
  Te  Te0  1  0.25000000  0.25000000  0.25000000  1
  Te  Te1  1  0.75000000  0.75000000  0.75000000  1
  Te  Te2  1  0.50000000  0.50000000  0.50000000  1
loop_
_geom_bond_atom_site_label_1
_geom_bond_atom_site_label_2
_geom_bond_distance
_geom_bond_site_symmetry_2
Sn0 Te1 3.343914 1_444
Sn0 Te1 3.343914 1_454
Sn0 Te0 3.343914 1_545
Sn0 Te0 3.343914 1_555
Sn0 Te1 3.343914 1_544
Sn0 Te1 3.343914 1_445
Sn0 Te0 3.343914 1_455
Sn0 Te0 3.343914 1_554
Sn0 Te2 3.861219 1_545
Sn0 Te2 3.861219 1_455
Sn0 Te2 3.861219 1_554
Sn0 Te2 3.861219 1_445
Sn0 Te2 3.861219 1_454
Sn0 Te2 3.861219 1_544
Te0 Te2 3.343914 1_555
Te0 Te2 3.343914 1_554
Te0 Te2 3.343914 1_455
Te0 Te2 3.343914 1_545
Te0 Te1 3.861219 1_554
Te0 Te1 3.861219 1_455
Te0 Te1 3.861219 1_544
Te0 Te1 3.861219 1_545
Te0 Te1 3.861219 1_454
Te0 Te1 3.861219 1_445
Te1 Te2 3.343914 1_555
Te1 Te2 3.343914 1_565
Te1 Te2 3.343914 1_655
Te1 Te2 3.343914 1_556
