# generated using pymatgen
data_Mn4As3
_symmetry_space_group_name_H-M   'P 1'
_cell_length_a   6.74080040
_cell_length_b   6.74080040
_cell_length_c   9.39959344
_cell_angle_alpha   76.64625647
_cell_angle_beta   76.64625647
_cell_angle_gamma   30.40146353
_symmetry_Int_Tables_number   1
_chemical_formula_structural   Mn4As3
_chemical_formula_sum   'Mn8 As6'
_cell_volume   209.85598569
_cell_formula_units_Z   2
loop_
 _symmetry_equiv_pos_site_id
 _symmetry_equiv_pos_as_xyz
  1  'x, y, z'
loop_
 _atom_site_type_symbol
 _atom_site_label
 _atom_site_symmetry_multiplicity
 _atom_site_fract_x
 _atom_site_fract_y
 _atom_site_fract_z
 _atom_site_occupancy
  Mn  Mn0  1  0.78276400  0.78276400  0.16595200  1
  Mn  Mn1  1  0.21723600  0.21723600  0.83404800  1
  Mn  Mn2  1  0.65694200  0.65694200  0.54976700  1
  Mn  Mn3  1  0.34305800  0.34305800  0.45023300  1
  Mn  Mn4  1  0.56783900  0.56783900  0.28763600  1
  Mn  Mn5  1  0.43216100  0.43216100  0.71236400  1
  Mn  Mn6  1  0.00000000  0.00000000  0.50000000  1
  Mn  Mn7  1  0.00000000  0.00000000  0.00000000  1
  As  As0  1  0.93751900  0.93751900  0.27329300  1
  As  As1  1  0.06248100  0.06248100  0.72670700  1
  As  As2  1  0.81347900  0.81347900  0.65341600  1
  As  As3  1  0.18652100  0.18652100  0.34658400  1
  As  As4  1  0.63835300  0.63835300  0.02077000  1
  As  As5  1  0.36164700  0.36164700  0.97923000  1
loop_
_geom_bond_atom_site_label_1
_geom_bond_atom_site_label_2
_geom_bond_distance
_geom_bond_site_symmetry_2
Mn0 Mn4 2.756056 1_555
Mn0 Mn7 2.882795 1_665
Mn1 Mn5 2.756056 1_555
Mn1 Mn7 2.882795 1_556
Mn2 Mn6 2.822916 1_565
Mn2 Mn6 2.822916 1_655
Mn2 Mn5 2.957778 1_555
Mn2 Mn3 2.962730 1_565
Mn2 Mn3 2.962730 1_655
Mn2 Mn4 2.963431 1_555
Mn3 Mn6 2.822916 1_565
Mn3 Mn6 2.822916 1_655
Mn3 Mn4 2.957778 1_555
Mn3 Mn5 2.963431 1_555
Mn4 Mn6 2.654068 1_655
Mn4 Mn6 2.654068 1_565
Mn5 Mn6 2.654068 1_655
Mn5 Mn6 2.654068 1_565
As0 Mn6 2.455785 1_665
As0 Mn0 2.458446 1_555
As0 Mn4 2.475080 1_565
As0 Mn4 2.475080 1_655
As0 Mn7 2.502035 1_665
As0 Mn3 2.534145 1_565
As0 Mn3 2.534145 1_655
As1 Mn6 2.455785 1_555
As1 Mn1 2.458446 1_555
As1 Mn5 2.475080 1_455
As1 Mn5 2.475080 1_545
As1 Mn7 2.502035 1_556
As1 Mn2 2.534145 1_545
As1 Mn2 2.534145 1_455
As2 Mn2 2.458941 1_555
As2 Mn5 2.494890 1_565
As2 Mn5 2.494890 1_655
As2 Mn6 2.508582 1_665
As2 Mn1 2.560624 1_655
As2 Mn1 2.560624 1_565
As2 Mn3 2.562741 1_655
As2 Mn3 2.562741 1_565
As3 Mn3 2.458941 1_555
As3 Mn4 2.494890 1_455
As3 Mn4 2.494890 1_545
As3 Mn6 2.508582 1_555
As3 Mn0 2.560624 1_545
As3 Mn0 2.560624 1_455
As3 Mn2 2.562741 1_455
As3 Mn2 2.562741 1_545
As4 Mn4 2.456075 1_555
As4 Mn1 2.528896 1_564
As4 Mn1 2.528896 1_654
As4 Mn7 2.563212 1_655
As4 Mn7 2.563212 1_565
As4 Mn0 2.572806 1_555
As5 Mn5 2.456075 1_555
As5 Mn0 2.528896 1_546
As5 Mn0 2.528896 1_456
As5 Mn7 2.563212 1_566
As5 Mn7 2.563212 1_656
As5 Mn1 2.572806 1_555
