# generated using pymatgen
data_NbC
_symmetry_space_group_name_H-M   'P 1'
_cell_length_a   3.15417639
_cell_length_b   3.15417639
_cell_length_c   5.58203300
_cell_angle_alpha   90.00000000
_cell_angle_beta   90.00000000
_cell_angle_gamma   120.00000828
_symmetry_Int_Tables_number   1
_chemical_formula_structural   NbC
_chemical_formula_sum   'Nb2 C2'
_cell_volume   48.09444856
_cell_formula_units_Z   2
loop_
 _symmetry_equiv_pos_site_id
 _symmetry_equiv_pos_as_xyz
  1  'x, y, z'
loop_
 _atom_site_type_symbol
 _atom_site_label
 _atom_site_symmetry_multiplicity
 _atom_site_fract_x
 _atom_site_fract_y
 _atom_site_fract_z
 _atom_site_occupancy
  Nb  Nb0  1  0.00000000  0.00000000  0.50000000  1
  Nb  Nb1  1  0.00000000  0.00000000  0.00000000  1
  C  C0  1  0.33333300  0.66666700  0.25000000  1
  C  C1  1  0.66666700  0.33333300  0.75000000  1
loop_
_geom_bond_atom_site_label_1
_geom_bond_atom_site_label_2
_geom_bond_distance
_geom_bond_site_symmetry_2
C0 Nb1 2.294278 1_565
C0 Nb0 2.294278 1_565
C0 Nb1 2.294280 1_665
C0 Nb0 2.294280 1_555
C0 Nb1 2.294280 1_555
C0 Nb0 2.294280 1_665
C1 Nb1 2.294278 1_656
C1 Nb0 2.294278 1_655
C1 Nb0 2.294280 1_555
C1 Nb1 2.294280 1_666
C1 Nb1 2.294280 1_556
C1 Nb0 2.294280 1_665
