# generated using pymatgen
data_Rb2MgH4
_symmetry_space_group_name_H-M   'P 1'
_cell_length_a   6.66655490
_cell_length_b   6.66655490
_cell_length_c   8.80872700
_cell_angle_alpha   90.00000000
_cell_angle_beta   90.00000000
_cell_angle_gamma   103.79332763
_symmetry_Int_Tables_number   1
_chemical_formula_structural   Rb2MgH4
_chemical_formula_sum   'Rb4 Mg2 H8'
_cell_volume   380.19620232
_cell_formula_units_Z   2
loop_
 _symmetry_equiv_pos_site_id
 _symmetry_equiv_pos_as_xyz
  1  'x, y, z'
loop_
 _atom_site_type_symbol
 _atom_site_label
 _atom_site_symmetry_multiplicity
 _atom_site_fract_x
 _atom_site_fract_y
 _atom_site_fract_z
 _atom_site_occupancy
  Rb  Rb0  1  0.50000000  0.50000000  0.50000000  1
  Rb  Rb1  1  0.50000000  0.50000000  0.00000000  1
  Rb  Rb2  1  0.90951300  0.09048700  0.75000000  1
  Rb  Rb3  1  0.09048700  0.90951300  0.25000000  1
  Mg  Mg0  1  0.25584200  0.74415800  0.75000000  1
  Mg  Mg1  1  0.74415800  0.25584200  0.25000000  1
  H  H0  1  0.54572700  0.78584300  0.75000000  1
  H  H1  1  0.78584300  0.54572700  0.25000000  1
  H  H2  1  0.83846100  0.16153900  0.07343100  1
  H  H3  1  0.83846100  0.16153900  0.42656900  1
  H  H4  1  0.16153900  0.83846100  0.92656900  1
  H  H5  1  0.16153900  0.83846100  0.57343100  1
  H  H6  1  0.21415700  0.45427300  0.75000000  1
  H  H7  1  0.45427300  0.21415700  0.25000000  1
loop_
_geom_bond_atom_site_label_1
_geom_bond_atom_site_label_2
_geom_bond_distance
_geom_bond_site_symmetry_2
H0 Mg0 1.885691 1_555
H0 Rb2 2.767241 1_565
H0 Rb0 2.880417 1_555
H0 Rb1 2.880417 1_556
H1 Mg1 1.885691 1_555
H1 Rb3 2.767241 1_655
H1 Rb0 2.880417 1_555
H1 Rb1 2.880417 1_555
H2 Mg1 1.843377 1_555
H2 Rb2 2.944929 1_554
H2 Rb3 3.067727 1_645
H2 Rb1 3.609499 1_555
H3 Mg1 1.843377 1_555
H3 Rb2 2.944929 1_555
H3 Rb3 3.067727 1_645
H3 Rb0 3.609499 1_555
H4 Mg0 1.843377 1_555
H4 Rb3 2.944929 1_556
H4 Rb2 3.067727 1_465
H4 Rb1 3.609499 1_556
H5 Mg0 1.843377 1_555
H5 Rb3 2.944929 1_555
H5 Rb2 3.067727 1_465
H5 Rb0 3.609499 1_555
H6 Mg0 1.885691 1_555
H6 Rb2 2.767241 1_455
H6 Rb0 2.880417 1_555
H6 Rb1 2.880417 1_556
H7 Mg1 1.885691 1_555
H7 Rb3 2.767241 1_545
H7 Rb0 2.880417 1_555
H7 Rb1 2.880417 1_555
