# generated using pymatgen
data_PrMo3
_symmetry_space_group_name_H-M   'P 1'
_cell_length_a   6.80663627
_cell_length_b   6.80663627
_cell_length_c   4.42783700
_cell_angle_alpha   90.00000000
_cell_angle_beta   90.00000000
_cell_angle_gamma   120.00000261
_symmetry_Int_Tables_number   1
_chemical_formula_structural   PrMo3
_chemical_formula_sum   'Pr2 Mo6'
_cell_volume   177.65904868
_cell_formula_units_Z   2
loop_
 _symmetry_equiv_pos_site_id
 _symmetry_equiv_pos_as_xyz
  1  'x, y, z'
loop_
 _atom_site_type_symbol
 _atom_site_label
 _atom_site_symmetry_multiplicity
 _atom_site_fract_x
 _atom_site_fract_y
 _atom_site_fract_z
 _atom_site_occupancy
  Pr  Pr0  1  0.33333300  0.66666700  0.75000000  1
  Pr  Pr1  1  0.66666700  0.33333300  0.25000000  1
  Mo  Mo0  1  0.12976500  0.25953000  0.25000000  1
  Mo  Mo1  1  0.74047000  0.87023500  0.25000000  1
  Mo  Mo2  1  0.12976500  0.87023500  0.25000000  1
  Mo  Mo3  1  0.87023500  0.74047000  0.75000000  1
  Mo  Mo4  1  0.25953000  0.12976500  0.75000000  1
  Mo  Mo5  1  0.87023500  0.12976500  0.75000000  1
loop_
_geom_bond_atom_site_label_1
_geom_bond_atom_site_label_2
_geom_bond_distance
_geom_bond_site_symmetry_2
Mo0 Mo1 2.649789 1_445
Mo0 Mo2 2.649789 1_545
Mo0 Mo5 2.691077 1_455
Mo0 Mo5 2.691077 1_454
Mo0 Mo4 2.691077 1_554
Mo0 Mo4 2.691077 1_555
Mo0 Pr0 3.265155 1_555
Mo0 Pr0 3.265155 1_554
Mo0 Pr1 3.431008 1_455
Mo0 Pr1 3.431015 1_555
Mo1 Mo2 2.649789 1_655
Mo1 Mo5 2.691077 1_564
Mo1 Mo5 2.691077 1_565
Mo1 Mo3 2.691077 1_555
Mo1 Mo3 2.691077 1_554
Mo1 Pr0 3.265155 1_554
Mo1 Pr0 3.265155 1_555
Mo1 Pr1 3.431008 1_565
Mo1 Pr1 3.431015 1_555
Mo2 Mo3 2.691077 1_455
Mo2 Mo4 2.691077 1_565
Mo2 Mo4 2.691077 1_564
Mo2 Mo3 2.691077 1_454
Mo2 Pr0 3.265151 1_554
Mo2 Pr0 3.265151 1_555
Mo2 Pr1 3.431012 1_455
Mo2 Pr1 3.431012 1_565
Mo3 Mo4 2.649789 1_665
Mo3 Mo5 2.649789 1_565
Mo3 Pr1 3.265155 1_556
Mo3 Pr1 3.265155 1_555
Mo3 Pr0 3.431008 1_655
Mo3 Pr0 3.431015 1_555
Mo4 Mo5 2.649789 1_455
Mo4 Pr1 3.265155 1_556
Mo4 Pr1 3.265155 1_555
Mo4 Pr0 3.431008 1_545
Mo4 Pr0 3.431015 1_555
Mo5 Pr1 3.265151 1_555
Mo5 Pr1 3.265151 1_556
Mo5 Pr0 3.431012 1_545
Mo5 Pr0 3.431012 1_655
