# generated using pymatgen
data_Ca(SbO3)2
_symmetry_space_group_name_H-M   'P 1'
_cell_length_a   5.25791554
_cell_length_b   5.25791555
_cell_length_c   5.02144323
_cell_angle_alpha   90.00000000
_cell_angle_beta   90.00000000
_cell_angle_gamma   120.00000624
_symmetry_Int_Tables_number   1
_chemical_formula_structural   Ca(SbO3)2
_chemical_formula_sum   'Ca1 Sb2 O6'
_cell_volume   120.22267125
_cell_formula_units_Z   1
loop_
 _symmetry_equiv_pos_site_id
 _symmetry_equiv_pos_as_xyz
  1  'x, y, z'
loop_
 _atom_site_type_symbol
 _atom_site_label
 _atom_site_symmetry_multiplicity
 _atom_site_fract_x
 _atom_site_fract_y
 _atom_site_fract_z
 _atom_site_occupancy
  Ca  Ca0  1  0.00000000  -0.00000000  0.00000000  1
  Sb  Sb0  1  0.33333300  0.66666700  0.50000000  1
  Sb  Sb1  1  0.66666700  0.33333300  0.50000000  1
  O  O0  1  0.36817111  0.36817111  0.71712232  1
  O  O1  1  0.63182889  -0.00000000  0.71712232  1
  O  O2  1  -0.00000000  0.63182889  0.71712232  1
  O  O3  1  0.36817111  0.00000000  0.28287768  1
  O  O4  1  0.00000000  0.36817111  0.28287768  1
  O  O5  1  0.63182889  0.63182889  0.28287768  1
loop_
_geom_bond_atom_site_label_1
_geom_bond_atom_site_label_2
_geom_bond_distance
_geom_bond_site_symmetry_2
Ca0 O5 2.401054 1_445
Ca0 O0 2.401054 1_554
Ca0 O3 2.401054 1_555
Ca0 O1 2.401054 1_454
Ca0 O2 2.401054 1_544
Ca0 O4 2.401054 1_555
O0 Sb1 1.993226 1_555
O0 Sb0 1.993226 1_555
O1 Sb1 1.993221 1_555
O1 Sb0 1.993223 1_545
O2 Sb0 1.993221 1_555
O2 Sb1 1.993223 1_455
O3 Sb0 1.993221 1_545
O3 Sb1 1.993223 1_555
O4 Sb1 1.993221 1_455
O4 Sb0 1.993223 1_555
O5 Sb0 1.993226 1_555
O5 Sb1 1.993226 1_555
