# generated using pymatgen
data_CoSn3
_symmetry_space_group_name_H-M   'P 1'
_cell_length_a   17.62073051
_cell_length_b   17.62073051
_cell_length_c   17.62073051
_cell_angle_alpha   159.40038104
_cell_angle_beta   159.40038104
_cell_angle_gamma   29.29362112
_symmetry_Int_Tables_number   1
_chemical_formula_structural   CoSn3
_chemical_formula_sum   'Co8 Sn24'
_cell_volume   676.88344832
_cell_formula_units_Z   8
loop_
 _symmetry_equiv_pos_site_id
 _symmetry_equiv_pos_as_xyz
  1  'x, y, z'
loop_
 _atom_site_type_symbol
 _atom_site_label
 _atom_site_symmetry_multiplicity
 _atom_site_fract_x
 _atom_site_fract_y
 _atom_site_fract_z
 _atom_site_occupancy
  Co  Co0  1  0.46015100  0.46015100  0.00000000  1
  Co  Co1  1  0.78984900  0.28984900  0.50000000  1
  Co  Co2  1  0.03984900  0.03984900  0.00000000  1
  Co  Co3  1  0.21015100  0.71015100  0.50000000  1
  Co  Co4  1  0.28984900  0.78984900  0.50000000  1
  Co  Co5  1  0.96015100  0.96015100  0.00000000  1
  Co  Co6  1  0.71015100  0.21015100  0.50000000  1
  Co  Co7  1  0.53984900  0.53984900  0.00000000  1
  Sn  Sn0  1  0.41458600  0.41458600  0.32917300  1
  Sn  Sn1  1  0.08541400  0.08541400  0.67082700  1
  Sn  Sn2  1  0.83541400  0.66458600  0.50000000  1
  Sn  Sn3  1  0.16458600  0.33541400  0.50000000  1
  Sn  Sn4  1  0.33541400  0.83541400  0.17082700  1
  Sn  Sn5  1  0.66458600  0.16458600  0.82917300  1
  Sn  Sn6  1  0.91458600  0.58541400  0.00000000  1
  Sn  Sn7  1  0.58541400  0.91458600  0.00000000  1
  Sn  Sn8  1  0.98518100  0.34756300  0.99803500  1
  Sn  Sn9  1  0.34952800  0.98714500  0.00196500  1
  Sn  Sn10  1  0.26481900  0.76285500  0.86238200  1
  Sn  Sn11  1  0.90047200  0.40243700  0.13761800  1
  Sn  Sn12  1  0.15243700  0.51481900  0.00196500  1
  Sn  Sn13  1  0.51285500  0.15047200  0.99803500  1
  Sn  Sn14  1  0.73714500  0.23518100  0.13761800  1
  Sn  Sn15  1  0.09756300  0.59952800  0.86238200  1
  Sn  Sn16  1  0.76481900  0.90243700  0.50196500  1
  Sn  Sn17  1  0.40047200  0.26285500  0.49803500  1
  Sn  Sn18  1  0.48518100  0.48714500  0.63761800  1
  Sn  Sn19  1  0.84952800  0.84756300  0.36238200  1
  Sn  Sn20  1  0.59756300  0.73518100  0.49803500  1
  Sn  Sn21  1  0.23714500  0.09952800  0.50196500  1
  Sn  Sn22  1  0.01285500  0.01481900  0.36238200  1
  Sn  Sn23  1  0.65243700  0.65047200  0.63761800  1
loop_
_geom_bond_atom_site_label_1
_geom_bond_atom_site_label_2
_geom_bond_distance
_geom_bond_site_symmetry_2
Co0 Co7 2.717400 1_555
Co0 Sn5 2.718158 1_554
Co0 Sn3 2.718168 1_554
Co0 Sn2 2.718168 1_555
Co0 Sn4 2.718175 1_555
Co0 Sn20 2.725682 1_555
Co0 Sn21 2.725690 1_554
Co0 Sn15 2.739956 1_554
Co0 Sn14 2.739962 1_555
Co1 Co6 2.717400 1_555
Co1 Sn1 2.718158 1_655
Co1 Sn7 2.718168 1_545
Co1 Sn6 2.718168 1_556
Co1 Sn0 2.718175 1_555
Co1 Sn23 2.725682 1_555
Co1 Sn22 2.725695 1_655
Co1 Sn12 2.739956 1_656
Co1 Sn13 2.739964 1_554
Co2 Co5 2.717400 1_445
Co2 Sn4 2.718158 1_545
Co2 Sn2 2.718168 1_444
Co2 Sn3 2.718168 1_555
Co2 Sn5 2.718175 1_454
Co2 Sn16 2.725682 1_444
Co2 Sn17 2.725690 1_555
Co2 Sn11 2.739956 1_455
Co2 Sn10 2.739962 1_544
Co3 Co4 2.717400 1_555
Co3 Sn0 2.718158 1_555
Co3 Sn6 2.718168 1_455
Co3 Sn7 2.718168 1_556
Co3 Sn1 2.718175 1_565
Co3 Sn19 2.725682 1_455
Co3 Sn18 2.725695 1_555
Co3 Sn8 2.739956 1_454
Co3 Sn9 2.739964 1_556
Co4 Sn1 2.718158 1_565
Co4 Sn6 2.718168 1_455
Co4 Sn7 2.718168 1_556
Co4 Sn0 2.718175 1_555
Co4 Sn12 2.725682 1_555
Co4 Sn13 2.725690 1_565
Co4 Sn23 2.739956 1_555
Co4 Sn22 2.739962 1_565
Co5 Sn5 2.718158 1_564
Co5 Sn3 2.718168 1_665
Co5 Sn2 2.718168 1_554
Co5 Sn4 2.718175 1_655
Co5 Sn15 2.725682 1_654
Co5 Sn14 2.725695 1_565
Co5 Sn20 2.739956 1_554
Co5 Sn21 2.739964 1_665
Co6 Sn0 2.718158 1_555
Co6 Sn7 2.718168 1_545
Co6 Sn6 2.718168 1_556
Co6 Sn1 2.718175 1_655
Co6 Sn8 2.725682 1_555
Co6 Sn9 2.725690 1_545
Co6 Sn19 2.739956 1_545
Co6 Sn18 2.739962 1_555
Co7 Sn4 2.718158 1_555
Co7 Sn2 2.718168 1_555
Co7 Sn3 2.718168 1_554
Co7 Sn5 2.718175 1_554
Co7 Sn11 2.725682 1_555
Co7 Sn10 2.725695 1_554
Co7 Sn16 2.739956 1_555
Co7 Sn17 2.739964 1_554
Sn0 Sn1 2.933311 1_554
Sn0 Sn18 3.135176 1_555
Sn0 Sn23 3.135192 1_555
Sn0 Sn7 3.329371 1_556
Sn0 Sn6 3.329371 1_556
Sn0 Sn7 3.329377 1_545
Sn0 Sn6 3.329377 1_455
Sn1 Sn22 3.135176 1_555
Sn1 Sn19 3.135192 1_445
Sn1 Sn6 3.329371 1_445
Sn1 Sn7 3.329371 1_445
Sn1 Sn6 3.329377 1_456
Sn1 Sn7 3.329377 1_546
Sn2 Sn3 2.933302 1_655
Sn2 Sn20 3.135178 1_555
Sn2 Sn4 3.329371 1_656
Sn2 Sn5 3.329371 1_554
Sn2 Sn5 3.329377 1_565
Sn2 Sn4 3.329377 1_555
Sn3 Sn4 3.329371 1_556
Sn3 Sn5 3.329371 1_454
Sn3 Sn4 3.329377 1_545
Sn3 Sn5 3.329377 1_555
Sn4 Sn5 2.933311 1_565
Sn6 Sn7 2.933302 1_555
Sn6 Sn8 3.135178 1_554
Sn7 Sn9 3.135192 1_555
Sn8 Sn9 3.229293 1_646
Sn10 Sn9 3.019171 1_556
Sn10 Sn4 3.135176 1_556
Sn10 Sn11 3.229289 1_455
Sn10 Sn17 3.264461 1_566
Sn10 Sn17 3.264461 1_555
Sn10 Sn16 3.271029 1_455
Sn10 Sn16 3.271035 1_556
Sn10 Sn18 3.772281 1_555
Sn11 Sn8 3.019205 1_554
Sn11 Sn5 3.135192 1_554
Sn11 Sn16 3.264461 1_555
Sn11 Sn16 3.264461 1_544
Sn11 Sn17 3.271029 1_655
Sn11 Sn17 3.271035 1_554
Sn11 Sn19 3.772302 1_555
Sn12 Sn15 3.019205 1_554
Sn12 Sn6 3.135178 1_455
Sn12 Sn13 3.229293 1_554
Sn12 Sn23 3.264461 1_454
Sn12 Sn23 3.264461 1_555
Sn12 Sn22 3.271029 1_565
Sn12 Sn22 3.271035 1_554
Sn12 Sn20 3.772302 1_555
Sn13 Sn14 3.019171 1_556
Sn13 Sn7 3.135192 1_546
Sn13 Sn22 3.264461 1_555
Sn13 Sn22 3.264461 1_656
Sn13 Sn23 3.271029 1_545
Sn13 Sn23 3.271035 1_556
Sn13 Sn21 3.772278 1_555
Sn14 Sn5 3.135176 1_554
Sn14 Sn15 3.229289 1_655
Sn14 Sn21 3.264461 1_554
Sn14 Sn21 3.264461 1_655
Sn14 Sn20 3.271029 1_555
Sn14 Sn20 3.271035 1_544
Sn14 Sn22 3.772281 1_655
Sn15 Sn4 3.135192 1_556
Sn15 Sn20 3.264461 1_556
Sn15 Sn20 3.264461 1_455
Sn15 Sn21 3.271029 1_555
Sn15 Sn21 3.271035 1_566
Sn15 Sn23 3.772302 1_455
Sn16 Sn19 3.019205 1_555
Sn16 Sn2 3.135178 1_555
Sn16 Sn17 3.229293 1_565
Sn16 Sn8 3.772302 1_565
Sn17 Sn18 3.019171 1_555
Sn17 Sn3 3.135192 1_555
Sn17 Sn9 3.772278 1_545
Sn18 Sn19 3.229289 1_556
Sn18 Sn9 3.264461 1_556
Sn18 Sn9 3.264461 1_545
Sn18 Sn8 3.271029 1_555
Sn18 Sn8 3.271035 1_454
Sn19 Sn8 3.264461 1_554
Sn19 Sn8 3.264461 1_565
Sn19 Sn9 3.271029 1_555
Sn19 Sn9 3.271035 1_656
Sn20 Sn23 3.019205 1_555
Sn20 Sn21 3.229293 1_565
Sn21 Sn22 3.019171 1_555
Sn21 Sn3 3.135192 1_555
Sn22 Sn23 3.229289 1_444
