# generated using pymatgen
data_Mg5As
_symmetry_space_group_name_H-M   'P 1'
_cell_length_a   12.08389893
_cell_length_b   12.08389893
_cell_length_c   14.85570461
_cell_angle_alpha   73.94925599
_cell_angle_beta   73.94925599
_cell_angle_gamma   30.16589743
_symmetry_Int_Tables_number   1
_chemical_formula_structural   Mg5As
_chemical_formula_sum   'Mg40 As8'
_cell_volume   1044.40739132
_cell_formula_units_Z   8
loop_
 _symmetry_equiv_pos_site_id
 _symmetry_equiv_pos_as_xyz
  1  'x, y, z'
loop_
 _atom_site_type_symbol
 _atom_site_label
 _atom_site_symmetry_multiplicity
 _atom_site_fract_x
 _atom_site_fract_y
 _atom_site_fract_z
 _atom_site_occupancy
  Mg  Mg0_0  1  0.14409850  0.14409850  0.46923300  1
  Mg  Mg0_1  1  0.14409850  0.14409850  0.96923300  1
  Mg  Mg0_2  1  0.14409850  0.64409850  0.46923300  1
  Mg  Mg0_3  1  0.14409850  0.64409850  0.96923300  1
  Mg  Mg0_4  1  0.64409850  0.14409850  0.46923300  1
  Mg  Mg0_5  1  0.64409850  0.14409850  0.96923300  1
  Mg  Mg0_6  1  0.64409850  0.64409850  0.46923300  1
  Mg  Mg0_7  1  0.64409850  0.64409850  0.96923300  1
  Mg  Mg1_0  1  0.33371250  0.33371250  0.33772600  1
  Mg  Mg1_1  1  0.33371250  0.33371250  0.83772600  1
  Mg  Mg1_2  1  0.33371250  0.83371250  0.33772600  1
  Mg  Mg1_3  1  0.33371250  0.83371250  0.83772600  1
  Mg  Mg1_4  1  0.83371250  0.33371250  0.33772600  1
  Mg  Mg1_5  1  0.83371250  0.33371250  0.83772600  1
  Mg  Mg1_6  1  0.83371250  0.83371250  0.33772600  1
  Mg  Mg1_7  1  0.83371250  0.83371250  0.83772600  1
  Mg  Mg2_0  1  0.47601650  0.47601650  0.29107650  1
  Mg  Mg2_1  1  0.47601650  0.47601650  0.79107650  1
  Mg  Mg2_2  1  0.47601650  0.97601650  0.29107650  1
  Mg  Mg2_3  1  0.47601650  0.97601650  0.79107650  1
  Mg  Mg2_4  1  0.97601650  0.47601650  0.29107650  1
  Mg  Mg2_5  1  0.97601650  0.47601650  0.79107650  1
  Mg  Mg2_6  1  0.97601650  0.97601650  0.29107650  1
  Mg  Mg2_7  1  0.97601650  0.97601650  0.79107650  1
  Mg  Mg3_0  1  0.15723550  0.15723550  0.16541500  1
  Mg  Mg3_1  1  0.15723550  0.15723550  0.66541500  1
  Mg  Mg3_2  1  0.15723550  0.65723550  0.16541500  1
  Mg  Mg3_3  1  0.15723550  0.65723550  0.66541500  1
  Mg  Mg3_4  1  0.65723550  0.15723550  0.16541500  1
  Mg  Mg3_5  1  0.65723550  0.15723550  0.66541500  1
  Mg  Mg3_6  1  0.65723550  0.65723550  0.16541500  1
  Mg  Mg3_7  1  0.65723550  0.65723550  0.66541500  1
  Mg  Mg4_0  1  0.00216650  0.00216650  0.01056050  1
  Mg  Mg4_1  1  0.00216650  0.00216650  0.51056050  1
  Mg  Mg4_2  1  0.00216650  0.50216650  0.01056050  1
  Mg  Mg4_3  1  0.00216650  0.50216650  0.51056050  1
  Mg  Mg4_4  1  0.50216650  0.00216650  0.01056050  1
  Mg  Mg4_5  1  0.50216650  0.00216650  0.51056050  1
  Mg  Mg4_6  1  0.50216650  0.50216650  0.01056050  1
  Mg  Mg4_7  1  0.50216650  0.50216650  0.51056050  1
  As  As0_0  1  0.30343900  0.30343900  0.14265550  1
  As  As0_1  1  0.30343900  0.30343900  0.64265550  1
  As  As0_2  1  0.30343900  0.80343900  0.14265550  1
  As  As0_3  1  0.30343900  0.80343900  0.64265550  1
  As  As0_4  1  0.80343900  0.30343900  0.14265550  1
  As  As0_5  1  0.80343900  0.30343900  0.64265550  1
  As  As0_6  1  0.80343900  0.80343900  0.14265550  1
  As  As0_7  1  0.80343900  0.80343900  0.64265550  1
loop_
_geom_bond_atom_site_label_1
_geom_bond_atom_site_label_2
_geom_bond_distance
_geom_bond_site_symmetry_2
Mg0_0 Mg3_1 3.016538 1_555
Mg0_0 Mg1_2 3.138593 1_545
Mg0_0 Mg1_4 3.138593 1_455
Mg0_0 Mg0_6 3.144438 1_545
Mg0_0 Mg0_6 3.144438 1_455
Mg0_0 Mg4_5 3.177252 1_555
Mg0_0 Mg4_3 3.177252 1_555
Mg0_0 Mg4_1 3.190897 1_555
Mg0_0 Mg2_4 3.198942 1_455
Mg0_0 Mg2_2 3.198942 1_545
Mg0_1 Mg3_0 3.016538 1_556
Mg0_1 Mg1_5 3.138593 1_455
Mg0_1 Mg1_3 3.138593 1_545
Mg0_1 Mg0_7 3.144438 1_545
Mg0_1 Mg0_7 3.144438 1_455
Mg0_1 Mg4_4 3.177252 1_556
Mg0_1 Mg4_2 3.177252 1_556
Mg0_1 Mg4_0 3.190897 1_556
Mg0_1 Mg2_3 3.198942 1_545
Mg0_1 Mg2_5 3.198942 1_455
Mg0_2 Mg3_3 3.016538 1_555
Mg0_2 Mg1_0 3.138593 1_555
Mg0_2 Mg1_6 3.138593 1_455
Mg0_2 Mg0_4 3.144438 1_465
Mg0_2 Mg0_4 3.144438 1_555
Mg0_2 Mg4_1 3.177252 1_565
Mg0_2 Mg4_7 3.177252 1_555
Mg0_2 Mg4_3 3.190897 1_555
Mg0_2 Mg2_6 3.198942 1_455
Mg0_2 Mg2_0 3.198942 1_555
Mg0_3 Mg3_2 3.016538 1_556
Mg0_3 Mg1_7 3.138593 1_455
Mg0_3 Mg1_1 3.138593 1_555
Mg0_3 Mg0_5 3.144438 1_465
Mg0_3 Mg0_5 3.144438 1_555
Mg0_3 Mg4_0 3.177252 1_566
Mg0_3 Mg4_6 3.177252 1_556
Mg0_3 Mg4_2 3.190897 1_556
Mg0_3 Mg2_7 3.198942 1_455
Mg0_3 Mg2_1 3.198942 1_555
Mg0_4 Mg3_5 3.016538 1_555
Mg0_4 Mg1_0 3.138593 1_555
Mg0_4 Mg1_6 3.138593 1_545
Mg0_4 Mg4_1 3.177252 1_655
Mg0_4 Mg4_7 3.177252 1_555
Mg0_4 Mg4_5 3.190897 1_555
Mg0_4 Mg2_6 3.198942 1_545
Mg0_4 Mg2_0 3.198942 1_555
Mg0_5 Mg3_4 3.016538 1_556
Mg0_5 Mg1_1 3.138593 1_555
Mg0_5 Mg1_7 3.138593 1_545
Mg0_5 Mg4_0 3.177252 1_656
Mg0_5 Mg4_6 3.177252 1_556
Mg0_5 Mg4_4 3.190897 1_556
Mg0_5 Mg2_7 3.198942 1_545
Mg0_5 Mg2_1 3.198942 1_555
Mg0_6 Mg3_7 3.016538 1_555
Mg0_6 Mg1_2 3.138593 1_555
Mg0_6 Mg1_4 3.138593 1_555
Mg0_6 Mg4_3 3.177252 1_655
Mg0_6 Mg4_5 3.177252 1_565
Mg0_6 Mg4_7 3.190897 1_555
Mg0_6 Mg2_4 3.198942 1_555
Mg0_6 Mg2_2 3.198942 1_555
Mg0_7 Mg3_6 3.016538 1_556
Mg0_7 Mg1_5 3.138593 1_555
Mg0_7 Mg1_3 3.138593 1_555
Mg0_7 Mg4_4 3.177252 1_566
Mg0_7 Mg4_2 3.177252 1_656
Mg0_7 Mg4_6 3.190897 1_556
Mg0_7 Mg2_3 3.198942 1_555
Mg0_7 Mg2_5 3.198942 1_555
Mg1_0 Mg3_2 3.074539 1_555
Mg1_0 Mg3_4 3.074539 1_555
Mg1_0 Mg4_3 3.144390 1_555
Mg1_0 Mg4_5 3.144390 1_555
Mg1_0 Mg1_6 3.144438 1_545
Mg1_0 Mg1_6 3.144438 1_455
Mg1_0 Mg2_0 3.192072 1_555
Mg1_0 Mg2_2 3.203949 1_545
Mg1_0 Mg2_4 3.203949 1_455
Mg1_1 Mg3_5 3.074539 1_555
Mg1_1 Mg3_3 3.074539 1_555
Mg1_1 Mg4_4 3.144390 1_556
Mg1_1 Mg4_2 3.144390 1_556
Mg1_1 Mg1_7 3.144438 1_455
Mg1_1 Mg1_7 3.144438 1_545
Mg1_1 Mg2_1 3.192072 1_555
Mg1_1 Mg2_5 3.203949 1_455
Mg1_1 Mg2_3 3.203949 1_545
Mg1_2 Mg3_6 3.074539 1_555
Mg1_2 Mg3_0 3.074539 1_565
Mg1_2 Mg4_7 3.144390 1_555
Mg1_2 Mg4_1 3.144390 1_565
Mg1_2 Mg1_4 3.144438 1_555
Mg1_2 Mg1_4 3.144438 1_465
Mg1_2 Mg2_2 3.192072 1_555
Mg1_2 Mg2_0 3.203949 1_555
Mg1_2 Mg2_6 3.203949 1_455
Mg1_3 Mg3_7 3.074539 1_555
Mg1_3 Mg3_1 3.074539 1_565
Mg1_3 Mg4_6 3.144390 1_556
Mg1_3 Mg4_0 3.144390 1_566
Mg1_3 Mg1_5 3.144438 1_555
Mg1_3 Mg1_5 3.144438 1_465
Mg1_3 Mg2_3 3.192072 1_555
Mg1_3 Mg2_1 3.203949 1_555
Mg1_3 Mg2_7 3.203949 1_455
Mg1_4 Mg3_6 3.074539 1_555
Mg1_4 Mg3_0 3.074539 1_655
Mg1_4 Mg4_7 3.144390 1_555
Mg1_4 Mg4_1 3.144390 1_655
Mg1_4 Mg2_4 3.192072 1_555
Mg1_4 Mg2_6 3.203949 1_545
Mg1_4 Mg2_0 3.203949 1_555
Mg1_5 Mg3_1 3.074539 1_655
Mg1_5 Mg3_7 3.074539 1_555
Mg1_5 Mg4_6 3.144390 1_556
Mg1_5 Mg4_0 3.144390 1_656
Mg1_5 Mg2_5 3.192072 1_555
Mg1_5 Mg2_1 3.203949 1_555
Mg1_5 Mg2_7 3.203949 1_545
Mg1_6 Mg3_4 3.074539 1_565
Mg1_6 Mg3_2 3.074539 1_655
Mg1_6 Mg4_3 3.144390 1_655
Mg1_6 Mg4_5 3.144390 1_565
Mg1_6 Mg2_6 3.192072 1_555
Mg1_6 Mg2_2 3.203949 1_555
Mg1_6 Mg2_4 3.203949 1_555
Mg1_7 Mg3_3 3.074539 1_655
Mg1_7 Mg3_5 3.074539 1_565
Mg1_7 Mg4_2 3.144390 1_656
Mg1_7 Mg4_4 3.144390 1_566
Mg1_7 Mg2_7 3.192072 1_555
Mg1_7 Mg2_5 3.203949 1_555
Mg1_7 Mg2_3 3.203949 1_555
Mg2_0 Mg2_6 3.144438 1_545
Mg2_0 Mg2_6 3.144438 1_455
Mg2_0 Mg3_2 3.201380 1_555
Mg2_0 Mg3_4 3.201380 1_555
Mg2_0 Mg4_7 3.484724 1_555
Mg2_1 Mg2_7 3.144438 1_545
Mg2_1 Mg2_7 3.144438 1_455
Mg2_1 Mg3_3 3.201380 1_555
Mg2_1 Mg3_5 3.201380 1_555
Mg2_1 Mg4_6 3.484724 1_556
Mg2_2 Mg2_4 3.144438 1_465
Mg2_2 Mg2_4 3.144438 1_555
Mg2_2 Mg3_0 3.201380 1_565
Mg2_2 Mg3_6 3.201380 1_555
Mg2_2 Mg4_5 3.484724 1_565
Mg2_3 Mg2_5 3.144438 1_555
Mg2_3 Mg2_5 3.144438 1_465
Mg2_3 Mg3_7 3.201380 1_555
Mg2_3 Mg3_1 3.201380 1_565
Mg2_3 Mg4_4 3.484724 1_566
Mg2_4 Mg3_0 3.201380 1_655
Mg2_4 Mg3_6 3.201380 1_555
Mg2_4 Mg4_3 3.484724 1_655
Mg2_5 Mg3_7 3.201380 1_555
Mg2_5 Mg3_1 3.201380 1_655
Mg2_5 Mg4_2 3.484724 1_656
Mg2_6 Mg3_2 3.201380 1_655
Mg2_6 Mg3_4 3.201380 1_565
Mg2_6 Mg4_1 3.484724 1_665
Mg2_7 Mg3_5 3.201380 1_565
Mg2_7 Mg3_3 3.201380 1_655
Mg2_7 Mg4_0 3.484724 1_666
Mg3_0 Mg4_4 3.122940 1_555
Mg3_0 Mg4_2 3.122940 1_555
Mg3_0 Mg3_6 3.144438 1_545
Mg3_0 Mg3_6 3.144438 1_455
Mg3_1 Mg4_5 3.122940 1_555
Mg3_1 Mg4_3 3.122940 1_555
Mg3_1 Mg3_7 3.144438 1_545
Mg3_1 Mg3_7 3.144438 1_455
Mg3_2 Mg4_0 3.122940 1_565
Mg3_2 Mg4_6 3.122940 1_555
Mg3_2 Mg3_4 3.144438 1_555
Mg3_2 Mg3_4 3.144438 1_465
Mg3_3 Mg4_7 3.122940 1_555
Mg3_3 Mg4_1 3.122940 1_565
Mg3_3 Mg3_5 3.144438 1_555
Mg3_3 Mg3_5 3.144438 1_465
Mg3_4 Mg4_0 3.122940 1_655
Mg3_4 Mg4_6 3.122940 1_555
Mg3_5 Mg4_7 3.122940 1_555
Mg3_5 Mg4_1 3.122940 1_655
Mg3_6 Mg4_4 3.122940 1_565
Mg3_6 Mg4_2 3.122940 1_655
Mg3_7 Mg4_3 3.122940 1_655
Mg3_7 Mg4_5 3.122940 1_565
Mg4_0 Mg4_6 3.144438 1_545
Mg4_0 Mg4_6 3.144438 1_455
Mg4_1 Mg4_7 3.144438 1_545
Mg4_1 Mg4_7 3.144438 1_455
Mg4_2 Mg4_4 3.144438 1_465
Mg4_2 Mg4_4 3.144438 1_555
Mg4_3 Mg4_5 3.144438 1_555
Mg4_3 Mg4_5 3.144438 1_465
As0_0 Mg2_2 2.883768 1_545
As0_0 Mg2_4 2.883768 1_455
As0_0 Mg3_4 2.986945 1_555
As0_0 Mg3_2 2.986945 1_555
As0_0 Mg4_4 3.016438 1_555
As0_0 Mg4_2 3.016438 1_555
As0_0 As0_6 3.144438 1_545
As0_0 As0_6 3.144438 1_455
As0_0 Mg1_0 3.173229 1_555
As0_0 Mg0_5 3.234719 1_554
As0_0 Mg0_3 3.234719 1_554
As0_0 Mg3_0 3.330664 1_555
As0_1 Mg2_5 2.883768 1_455
As0_1 Mg2_3 2.883768 1_545
As0_1 Mg3_5 2.986945 1_555
As0_1 Mg3_3 2.986945 1_555
As0_1 Mg4_3 3.016438 1_555
As0_1 Mg4_5 3.016438 1_555
As0_1 As0_7 3.144438 1_545
As0_1 As0_7 3.144438 1_455
As0_1 Mg1_1 3.173229 1_555
As0_1 Mg0_4 3.234719 1_555
As0_1 Mg0_2 3.234719 1_555
As0_1 Mg3_1 3.330664 1_555
As0_2 Mg2_0 2.883768 1_555
As0_2 Mg2_6 2.883768 1_455
As0_2 Mg3_6 2.986945 1_555
As0_2 Mg3_0 2.986945 1_565
As0_2 Mg4_6 3.016438 1_555
As0_2 Mg4_0 3.016438 1_565
As0_2 As0_4 3.144438 1_555
As0_2 As0_4 3.144438 1_465
As0_2 Mg1_2 3.173229 1_555
As0_2 Mg0_1 3.234719 1_564
As0_2 Mg0_7 3.234719 1_554
As0_2 Mg3_2 3.330664 1_555
As0_3 Mg2_1 2.883768 1_555
As0_3 Mg2_7 2.883768 1_455
As0_3 Mg3_1 2.986945 1_565
As0_3 Mg3_7 2.986945 1_555
As0_3 Mg4_7 3.016438 1_555
As0_3 Mg4_1 3.016438 1_565
As0_3 As0_5 3.144438 1_465
As0_3 As0_5 3.144438 1_555
As0_3 Mg1_3 3.173229 1_555
As0_3 Mg0_0 3.234719 1_565
As0_3 Mg0_6 3.234719 1_555
As0_3 Mg3_3 3.330664 1_555
As0_4 Mg2_6 2.883768 1_545
As0_4 Mg2_0 2.883768 1_555
As0_4 Mg3_6 2.986945 1_555
As0_4 Mg3_0 2.986945 1_655
As0_4 Mg4_6 3.016438 1_555
As0_4 Mg4_0 3.016438 1_655
As0_4 Mg1_4 3.173229 1_555
As0_4 Mg0_1 3.234719 1_654
As0_4 Mg0_7 3.234719 1_554
As0_4 Mg3_4 3.330664 1_555
As0_5 Mg2_1 2.883768 1_555
As0_5 Mg2_7 2.883768 1_545
As0_5 Mg3_1 2.986945 1_655
As0_5 Mg3_7 2.986945 1_555
As0_5 Mg4_7 3.016438 1_555
As0_5 Mg4_1 3.016438 1_655
As0_5 Mg1_5 3.173229 1_555
As0_5 Mg0_0 3.234719 1_655
As0_5 Mg0_6 3.234719 1_555
As0_5 Mg3_5 3.330664 1_555
As0_6 Mg2_2 2.883768 1_555
As0_6 Mg2_4 2.883768 1_555
As0_6 Mg3_4 2.986945 1_565
As0_6 Mg3_2 2.986945 1_655
As0_6 Mg4_2 3.016438 1_655
As0_6 Mg4_4 3.016438 1_565
As0_6 Mg1_6 3.173229 1_555
As0_6 Mg0_5 3.234719 1_564
As0_6 Mg0_3 3.234719 1_654
As0_6 Mg3_6 3.330664 1_555
As0_7 Mg2_5 2.883768 1_555
As0_7 Mg2_3 2.883768 1_555
As0_7 Mg3_3 2.986945 1_655
As0_7 Mg3_5 2.986945 1_565
As0_7 Mg4_5 3.016438 1_565
As0_7 Mg4_3 3.016438 1_655
As0_7 Mg1_7 3.173229 1_555
As0_7 Mg0_4 3.234719 1_565
As0_7 Mg0_2 3.234719 1_655
As0_7 Mg3_7 3.330664 1_555
