# generated using pymatgen
data_RbPbCl3
_symmetry_space_group_name_H-M   'P 1'
_cell_length_a   4.27608277
_cell_length_b   7.34058396
_cell_length_c   10.69394050
_cell_angle_alpha   90.00075316
_cell_angle_beta   89.99625657
_cell_angle_gamma   106.81022662
_symmetry_Int_Tables_number   1
_chemical_formula_structural   RbPbCl3
_chemical_formula_sum   'Rb2 Pb2 Cl6'
_cell_volume   321.32755459
_cell_formula_units_Z   2
loop_
 _symmetry_equiv_pos_site_id
 _symmetry_equiv_pos_as_xyz
  1  'x, y, z'
loop_
 _atom_site_type_symbol
 _atom_site_label
 _atom_site_symmetry_multiplicity
 _atom_site_fract_x
 _atom_site_fract_y
 _atom_site_fract_z
 _atom_site_occupancy
  Rb  Rb0  1  0.25235835  0.50383490  0.00981009  1
  Rb  Rb1  1  0.74756032  0.49615427  0.50978667  1
  Pb  Pb0  1  0.99940556  0.00008136  0.75924830  1
  Pb  Pb1  1  0.00078562  0.00000348  0.25924378  1
  Cl  Cl0  1  0.36371128  0.72824409  0.70458571  1
  Cl  Cl1  1  0.63617792  0.27171749  0.20455353  1
  Cl  Cl2  1  0.36465876  0.72844395  0.31469215  1
  Cl  Cl3  1  0.63536071  0.27157608  0.81470446  1
  Cl  Cl4  1  0.92769870  0.85453463  0.00937474  1
  Cl  Cl5  1  0.07228278  0.14541076  0.50939955  1
loop_
_geom_bond_atom_site_label_1
_geom_bond_atom_site_label_2
_geom_bond_distance
_geom_bond_site_symmetry_2
Cl0 Pb0 2.923710 1_465
Cl0 Pb0 2.928372 1_565
Cl0 Rb1 3.398983 1_555
Cl0 Rb1 3.404137 1_455
Cl0 Rb0 3.624995 1_556
Cl0 Cl3 4.028139 1_555
Cl0 Cl3 4.035458 1_455
Cl1 Pb1 2.924006 1_655
Cl1 Pb1 2.927053 1_555
Cl1 Rb0 3.398829 1_555
Cl1 Rb0 3.403726 1_655
Cl1 Rb1 3.625181 1_555
Cl1 Cl2 4.028230 1_555
Cl1 Cl2 4.036170 1_655
Cl2 Pb1 2.922398 1_565
Cl2 Pb1 2.930512 1_665
Cl2 Rb1 3.399479 1_555
Cl2 Rb1 3.408843 1_455
Cl2 Rb0 3.622330 1_555
Cl3 Pb0 2.922502 1_555
Cl3 Pb0 2.929857 1_455
Cl3 Rb0 3.399518 1_556
Cl3 Rb0 3.408766 1_656
Cl3 Rb1 3.622561 1_555
Cl4 Pb1 2.860938 1_665
Cl4 Pb0 2.863692 1_564
Cl4 Rb0 3.259096 1_655
Cl4 Rb0 3.265994 1_555
Cl5 Pb0 2.860373 1_455
Cl5 Pb1 2.863647 1_555
Cl5 Rb1 3.259564 1_455
Cl5 Rb1 3.265989 1_555
