# generated using pymatgen
data_Ba(MgSb)2
_symmetry_space_group_name_H-M   'P 1'
_cell_length_a   4.79853976
_cell_length_b   4.79853909
_cell_length_c   8.20590387
_cell_angle_alpha   90.00000000
_cell_angle_beta   90.00000000
_cell_angle_gamma   119.99999043
_symmetry_Int_Tables_number   1
_chemical_formula_structural   Ba(MgSb)2
_chemical_formula_sum   'Ba1 Mg2 Sb2'
_cell_volume   163.63463549
_cell_formula_units_Z   1
loop_
 _symmetry_equiv_pos_site_id
 _symmetry_equiv_pos_as_xyz
  1  'x, y, z'
loop_
 _atom_site_type_symbol
 _atom_site_label
 _atom_site_symmetry_multiplicity
 _atom_site_fract_x
 _atom_site_fract_y
 _atom_site_fract_z
 _atom_site_occupancy
  Ba  Ba0  1  -0.00000000  -0.00000000  0.00000000  1
  Mg  Mg0  1  0.66666700  0.33333300  0.37665790  1
  Mg  Mg1  1  0.33333300  0.66666700  0.62334210  1
  Sb  Sb0  1  0.66666700  0.33333300  0.73050756  1
  Sb  Sb1  1  0.33333300  0.66666700  0.26949244  1
loop_
_geom_bond_atom_site_label_1
_geom_bond_atom_site_label_2
_geom_bond_distance
_geom_bond_site_symmetry_2
Ba0 Sb1 3.544817 1_545
Ba0 Sb0 3.544817 1_454
Ba0 Sb1 3.544821 1_555
Ba0 Sb0 3.544821 1_444
Ba0 Sb1 3.544821 1_445
Ba0 Sb0 3.544821 1_554
Mg0 Sb0 2.903656 1_555
Mg0 Sb1 2.906654 1_545
Mg0 Sb1 2.906654 1_655
Mg0 Sb1 2.906662 1_555
Mg0 Mg1 3.431176 1_545
Mg0 Mg1 3.431176 1_655
Mg0 Mg1 3.431182 1_555
Mg1 Sb1 2.903656 1_555
Mg1 Sb0 2.906654 1_565
Mg1 Sb0 2.906654 1_455
Mg1 Sb0 2.906662 1_555
