# generated using pymatgen
data_CaPS3
_symmetry_space_group_name_H-M   'P 1'
_cell_length_a   6.57995077
_cell_length_b   7.32515142
_cell_length_c   9.21303058
_cell_angle_alpha   90.00000000
_cell_angle_beta   92.03948297
_cell_angle_gamma   90.00000000
_symmetry_Int_Tables_number   1
_chemical_formula_structural   CaPS3
_chemical_formula_sum   'Ca4 P4 S12'
_cell_volume   443.77881771
_cell_formula_units_Z   4
loop_
 _symmetry_equiv_pos_site_id
 _symmetry_equiv_pos_as_xyz
  1  'x, y, z'
loop_
 _atom_site_type_symbol
 _atom_site_label
 _atom_site_symmetry_multiplicity
 _atom_site_fract_x
 _atom_site_fract_y
 _atom_site_fract_z
 _atom_site_occupancy
  Ca  Ca0  1  0.03855901  0.61884529  0.75243411  1
  Ca  Ca1  1  0.46144099  0.11884529  0.74756589  1
  Ca  Ca2  1  0.96144099  0.38115471  0.24756589  1
  Ca  Ca3  1  0.53855901  0.88115471  0.25243411  1
  P  P0  1  0.56862205  0.60836188  0.93388205  1
  P  P1  1  0.93137795  0.10836188  0.56611795  1
  P  P2  1  0.43137795  0.39163812  0.06611795  1
  P  P3  1  0.06862205  0.89163812  0.43388205  1
  S  S0  1  0.85304205  0.69443468  0.43318941  1
  S  S1  1  0.64695795  0.19443468  0.06681059  1
  S  S2  1  0.14695795  0.30556532  0.56681059  1
  S  S3  1  0.35304205  0.80556532  0.93318941  1
  S  S4  1  0.12207069  0.00596779  0.24036446  1
  S  S5  1  0.37792931  0.50596779  0.25963554  1
  S  S6  1  0.87792931  0.99403221  0.75963554  1
  S  S7  1  0.62207069  0.49403221  0.74036446  1
  S  S8  1  0.32076727  0.80776656  0.54606305  1
  S  S9  1  0.17923273  0.30776656  0.95393695  1
  S  S10  1  0.67923273  0.19223344  0.45393695  1
  S  S11  1  0.82076727  0.69223344  0.04606305  1
loop_
_geom_bond_atom_site_label_1
_geom_bond_atom_site_label_2
_geom_bond_distance
_geom_bond_site_symmetry_2
Ca0 S7 2.887345 1_455
Ca0 S6 2.946127 1_455
Ca0 S3 2.946293 1_555
Ca0 S2 2.964187 1_555
Ca0 S8 3.038009 1_555
Ca0 S9 3.061594 1_555
Ca0 S11 3.152262 1_456
Ca0 S0 3.192469 1_455
Ca1 S6 2.887345 1_545
Ca1 S7 2.946127 1_555
Ca1 S2 2.946293 1_555
Ca1 S3 2.964187 1_545
Ca1 S9 3.038009 1_555
Ca1 S8 3.061594 1_545
Ca1 S10 3.152262 1_555
Ca1 S1 3.192469 1_556
Ca2 S5 2.887345 1_655
Ca2 S4 2.946127 1_655
Ca2 S1 2.946293 1_555
Ca2 S0 2.964187 1_555
Ca2 S10 3.038009 1_555
Ca2 S11 3.061594 1_555
Ca2 S9 3.152262 1_654
Ca2 S2 3.192469 1_655
Ca3 S4 2.887345 1_565
Ca3 S5 2.946127 1_555
Ca3 S0 2.946293 1_555
Ca3 S1 2.964187 1_565
Ca3 S11 3.038009 1_555
Ca3 S10 3.061594 1_565
Ca3 S8 3.152262 1_555
Ca3 S3 3.192469 1_554
P0 S7 2.012055 1_555
P0 S11 2.018962 1_556
P0 S3 2.024417 1_555
P0 P2 2.213217 1_556
P1 S6 2.012055 1_545
P1 S10 2.018962 1_555
P1 S2 2.024417 1_655
P1 P3 2.213217 1_645
P2 S5 2.012055 1_555
P2 S9 2.018962 1_554
P2 S1 2.024417 1_555
P3 S4 2.012055 1_565
P3 S8 2.018962 1_555
P3 S0 2.024417 1_455
