# generated using pymatgen
data_YbAgGe
_symmetry_space_group_name_H-M   'P 1'
_cell_length_a   7.03317290
_cell_length_b   7.03317290
_cell_length_c   4.14056901
_cell_angle_alpha   90.00000000
_cell_angle_beta   90.00000000
_cell_angle_gamma   120.00000255
_symmetry_Int_Tables_number   1
_chemical_formula_structural   YbAgGe
_chemical_formula_sum   'Yb3 Ag3 Ge3'
_cell_volume   177.37533792
_cell_formula_units_Z   3
loop_
 _symmetry_equiv_pos_site_id
 _symmetry_equiv_pos_as_xyz
  1  'x, y, z'
loop_
 _atom_site_type_symbol
 _atom_site_label
 _atom_site_symmetry_multiplicity
 _atom_site_fract_x
 _atom_site_fract_y
 _atom_site_fract_z
 _atom_site_occupancy
  Yb  Yb0  1  0.00000000  0.58416745  0.00000000  1
  Yb  Yb1  1  0.41583255  0.41583255  0.00000000  1
  Yb  Yb2  1  0.58416745  0.00000000  0.00000000  1
  Ag  Ag0  1  0.25223350  0.00000000  0.50000000  1
  Ag  Ag1  1  0.74776650  0.74776650  0.50000000  1
  Ag  Ag2  1  0.00000000  0.25223350  0.50000000  1
  Ge  Ge0  1  0.00000000  0.00000000  0.00000000  1
  Ge  Ge1  1  0.66666700  0.33333300  0.50000000  1
  Ge  Ge2  1  0.33333300  0.66666700  0.50000000  1
loop_
_geom_bond_atom_site_label_1
_geom_bond_atom_site_label_2
_geom_bond_distance
_geom_bond_site_symmetry_2
Ag0 Ge2 2.675576 1_545
Ag0 Ge1 2.675581 1_555
Ag0 Ge0 2.726382 1_555
Ag0 Ge0 2.726382 1_556
Ag0 Ag1 3.072661 1_445
Ag0 Ag2 3.072661 1_555
Ag0 Yb2 3.120288 1_556
Ag0 Yb2 3.120288 1_555
Ag0 Yb0 3.286075 1_545
Ag0 Yb0 3.286075 1_546
Ag0 Yb1 3.286075 1_556
Ag0 Yb1 3.286075 1_555
Ag1 Ge1 2.675583 1_555
Ag1 Ge2 2.675583 1_555
Ag1 Ge0 2.726382 1_665
Ag1 Ge0 2.726382 1_666
Ag1 Ag2 3.072661 1_665
Ag1 Yb1 3.120288 1_555
Ag1 Yb1 3.120288 1_556
Ag1 Yb2 3.286075 1_566
Ag1 Yb2 3.286075 1_565
Ag1 Yb0 3.286075 1_655
Ag1 Yb0 3.286075 1_656
Ag2 Ge1 2.675576 1_455
Ag2 Ge2 2.675581 1_555
Ag2 Ge0 2.726382 1_555
Ag2 Ge0 2.726382 1_556
Ag2 Yb0 3.120288 1_555
Ag2 Yb0 3.120288 1_556
Ag2 Yb2 3.286075 1_455
Ag2 Yb2 3.286075 1_456
Ag2 Yb1 3.286075 1_556
Ag2 Yb1 3.286075 1_555
Ge0 Yb1 2.924622 1_555
Ge0 Yb0 2.924622 1_545
Ge0 Yb2 2.924622 1_455
Ge1 Yb2 2.959496 1_556
Ge1 Yb2 2.959496 1_555
Ge1 Yb0 2.959497 1_655
Ge1 Yb0 2.959497 1_656
Ge1 Yb1 2.959500 1_556
Ge1 Yb1 2.959500 1_555
Ge2 Yb0 2.959496 1_556
Ge2 Yb0 2.959496 1_555
Ge2 Yb2 2.959497 1_565
Ge2 Yb2 2.959497 1_566
Ge2 Yb1 2.959500 1_556
Ge2 Yb1 2.959500 1_555
