# generated using pymatgen
data_AgAuO2
_symmetry_space_group_name_H-M   'P 1'
_cell_length_a   6.40462644
_cell_length_b   6.40462644
_cell_length_c   6.40462644
_cell_angle_alpha   136.01088905
_cell_angle_beta   136.01088905
_cell_angle_gamma   63.96350104
_symmetry_Int_Tables_number   1
_chemical_formula_structural   AgAuO2
_chemical_formula_sum   'Ag2 Au2 O4'
_cell_volume   125.02440962
_cell_formula_units_Z   2
loop_
 _symmetry_equiv_pos_site_id
 _symmetry_equiv_pos_as_xyz
  1  'x, y, z'
loop_
 _atom_site_type_symbol
 _atom_site_label
 _atom_site_symmetry_multiplicity
 _atom_site_fract_x
 _atom_site_fract_y
 _atom_site_fract_z
 _atom_site_occupancy
  Ag  Ag0  1  0.75000000  0.25000000  0.50000000  1
  Ag  Ag1  1  0.00000000  0.00000000  0.00000000  1
  Au  Au0  1  0.25000000  0.75000000  0.50000000  1
  Au  Au1  1  0.50000000  0.50000000  0.00000000  1
  O  O0  1  0.59487100  0.62500000  0.46987100  1
  O  O1  1  0.37500000  0.40512900  0.53012900  1
  O  O2  1  0.87500000  0.84487100  0.46987100  1
  O  O3  1  0.15512900  0.12500000  0.53012900  1
loop_
_geom_bond_atom_site_label_1
_geom_bond_atom_site_label_2
_geom_bond_distance
_geom_bond_site_symmetry_2
Ag0 O0 2.255851 1_555
Ag0 O3 2.255851 1_655
Ag0 O1 2.255851 1_555
Ag0 O2 2.255851 1_545
Ag1 O1 2.255851 1_555
Ag1 O2 2.255851 1_444
Ag1 O3 2.255851 1_555
Ag1 O0 2.255851 1_444
Au0 O0 2.096538 1_555
Au0 O3 2.096538 1_565
Au0 O2 2.096538 1_455
Au0 O1 2.096538 1_555
Au1 O1 2.096538 1_554
Au1 O2 2.096538 1_555
Au1 O3 2.096538 1_554
Au1 O0 2.096538 1_555
