# generated using pymatgen
data_NaTeAu
_symmetry_space_group_name_H-M   'P 1'
_cell_length_a   4.65711307
_cell_length_b   4.65711281
_cell_length_c   8.49310140
_cell_angle_alpha   90.00000000
_cell_angle_beta   90.00000000
_cell_angle_gamma   120.00000177
_symmetry_Int_Tables_number   1
_chemical_formula_structural   NaTeAu
_chemical_formula_sum   'Na2 Te2 Au2'
_cell_volume   159.52563187
_cell_formula_units_Z   2
loop_
 _symmetry_equiv_pos_site_id
 _symmetry_equiv_pos_as_xyz
  1  'x, y, z'
loop_
 _atom_site_type_symbol
 _atom_site_label
 _atom_site_symmetry_multiplicity
 _atom_site_fract_x
 _atom_site_fract_y
 _atom_site_fract_z
 _atom_site_occupancy
  Na  Na0  1  -0.00000000  0.00000000  -0.00000000  1
  Na  Na1  1  -0.00000000  0.00000000  0.50000000  1
  Te  Te0  1  0.33333300  0.66666700  0.75000000  1
  Te  Te1  1  0.66666700  0.33333300  0.25000000  1
  Au  Au0  1  0.33333300  0.66666700  0.25000000  1
  Au  Au1  1  0.66666700  0.33333300  0.75000000  1
loop_
_geom_bond_atom_site_label_1
_geom_bond_atom_site_label_2
_geom_bond_distance
_geom_bond_site_symmetry_2
Na0 Te0 3.426055 1_544
Na0 Te1 3.426055 1_455
Na0 Te1 3.426058 1_445
Na0 Te0 3.426058 1_554
Na0 Te1 3.426058 1_555
Na0 Te0 3.426058 1_444
Na1 Te0 3.426055 1_545
Na1 Te1 3.426055 1_455
Na1 Te1 3.426058 1_445
Na1 Te0 3.426058 1_555
Na1 Te1 3.426058 1_555
Na1 Te0 3.426058 1_445
Au0 Te1 2.688783 1_565
Au0 Te1 2.688783 1_455
Au0 Te1 2.688791 1_555
Au0 Na1 3.426055 1_565
Au0 Na0 3.426055 1_565
Au0 Na0 3.426058 1_555
Au0 Na1 3.426058 1_555
Au0 Na1 3.426058 1_665
Au0 Na0 3.426058 1_665
Au1 Te0 2.688783 1_545
Au1 Te0 2.688783 1_655
Au1 Te0 2.688791 1_555
Au1 Na1 3.426055 1_655
Au1 Na0 3.426055 1_656
Au1 Na0 3.426058 1_666
Au1 Na1 3.426058 1_665
Au1 Na1 3.426058 1_555
Au1 Na0 3.426058 1_556
