# generated using pymatgen
data_SmY3
_symmetry_space_group_name_H-M   'P 1'
_cell_length_a   7.32361360
_cell_length_b   7.32361384
_cell_length_c   5.87629732
_cell_angle_alpha   89.99999872
_cell_angle_beta   90.00000231
_cell_angle_gamma   119.99996420
_symmetry_Int_Tables_number   1
_chemical_formula_structural   SmY3
_chemical_formula_sum   'Sm2 Y6'
_cell_volume   272.95145202
_cell_formula_units_Z   2
loop_
 _symmetry_equiv_pos_site_id
 _symmetry_equiv_pos_as_xyz
  1  'x, y, z'
loop_
 _atom_site_type_symbol
 _atom_site_label
 _atom_site_symmetry_multiplicity
 _atom_site_fract_x
 _atom_site_fract_y
 _atom_site_fract_z
 _atom_site_occupancy
  Sm  Sm0  1  0.33333521  0.66666790  0.74999856  1
  Sm  Sm1  1  0.66666906  0.33333425  0.25000259  1
  Y  Y0  1  0.16603185  0.33206784  0.25000203  1
  Y  Y1  1  0.66793259  0.83396566  0.25000211  1
  Y  Y2  1  0.16603175  0.83396414  0.25000210  1
  Y  Y3  1  0.83397182  0.66794586  0.74999884  1
  Y  Y4  1  0.33205455  0.16602642  0.74999887  1
  Y  Y5  1  0.83397116  0.16602393  0.74999888  1
loop_
_geom_bond_atom_site_label_1
_geom_bond_atom_site_label_2
_geom_bond_distance
_geom_bond_site_symmetry_2
Sm0 Y1 3.624386 1_555
Sm0 Y2 3.624394 1_555
Sm0 Y0 3.624396 1_555
Sm0 Y1 3.624419 1_556
Sm0 Y2 3.624427 1_556
Sm0 Y0 3.624429 1_556
Sm0 Y5 3.661788 1_565
Sm0 Y3 3.661798 1_555
Sm0 Y4 3.661808 1_565
Sm0 Y4 3.661824 1_555
Sm0 Y3 3.661833 1_455
Sm0 Y5 3.661847 1_455
Sm1 Y3 3.624438 1_555
Sm1 Y5 3.624440 1_555
Sm1 Y4 3.624448 1_555
Sm1 Y3 3.624473 1_554
Sm1 Y5 3.624475 1_554
Sm1 Y4 3.624484 1_554
Sm1 Y0 3.661786 1_655
Sm1 Y2 3.661790 1_655
Sm1 Y1 3.661813 1_555
Sm1 Y1 3.661818 1_545
Sm1 Y2 3.661845 1_545
Sm1 Y0 3.661845 1_555
Y0 Y5 3.614991 1_455
Y0 Y4 3.615003 1_555
Y0 Y5 3.615021 1_454
Y0 Y4 3.615033 1_554
Y0 Y1 3.647899 1_445
Y0 Y2 3.647919 1_545
Y0 Y2 3.675695 1_555
Y0 Y1 3.675718 1_555
Y1 Y5 3.614981 1_565
Y1 Y3 3.614983 1_555
Y1 Y5 3.615012 1_564
Y1 Y3 3.615015 1_554
Y1 Y2 3.647891 1_655
Y1 Y2 3.675722 1_555
Y2 Y3 3.614987 1_455
Y2 Y4 3.614996 1_565
Y2 Y3 3.615018 1_454
Y2 Y4 3.615027 1_564
Y3 Y5 3.647734 1_565
Y3 Y4 3.647760 1_665
Y3 Y4 3.675858 1_555
Y3 Y5 3.675880 1_555
Y4 Y5 3.647761 1_455
Y4 Y5 3.675852 1_555
