# generated using pymatgen
data_K3SeO4F
_symmetry_space_group_name_H-M   'P 1'
_cell_length_a   7.86593778
_cell_length_b   7.86593778
_cell_length_c   7.86593778
_cell_angle_alpha   123.24292962
_cell_angle_beta   123.24292962
_cell_angle_gamma   84.46924447
_symmetry_Int_Tables_number   1
_chemical_formula_structural   K3SeO4F
_chemical_formula_sum   'K6 Se2 O8 F2'
_cell_volume   325.61386917
_cell_formula_units_Z   2
loop_
 _symmetry_equiv_pos_site_id
 _symmetry_equiv_pos_as_xyz
  1  'x, y, z'
loop_
 _atom_site_type_symbol
 _atom_site_label
 _atom_site_symmetry_multiplicity
 _atom_site_fract_x
 _atom_site_fract_y
 _atom_site_fract_z
 _atom_site_occupancy
  K  K0  1  0.75000000  0.75000000  0.00000000  1
  K  K1  1  0.25000000  0.25000000  0.00000000  1
  K  K2  1  0.80940700  0.30940700  0.11881400  1
  K  K3  1  0.30940700  0.19059300  0.50000000  1
  K  K4  1  0.69059300  0.80940700  0.50000000  1
  K  K5  1  0.19059300  0.69059300  0.88118600  1
  Se  Se0  1  0.25000000  0.75000000  0.50000000  1
  Se  Se1  1  0.75000000  0.25000000  0.50000000  1
  O  O0  1  0.53705600  0.03705600  0.24495700  1
  O  O1  1  0.20790100  0.70790100  0.24495700  1
  O  O2  1  0.46294400  0.96294400  0.75504300  1
  O  O3  1  0.96294400  0.20790100  0.50000000  1
  O  O4  1  0.70790100  0.46294400  0.50000000  1
  O  O5  1  0.03705600  0.79209900  0.50000000  1
  O  O6  1  0.29209900  0.53705600  0.50000000  1
  O  O7  1  0.79209900  0.29209900  0.75504300  1
  F  F0  1  0.50000000  0.50000000  0.00000000  1
  F  F1  1  0.00000000  0.00000000  0.00000000  1
loop_
_geom_bond_atom_site_label_1
_geom_bond_atom_site_label_2
_geom_bond_distance
_geom_bond_site_symmetry_2
K0 O2 3.107428 1_554
K0 O0 3.107428 1_565
K0 O6 3.107428 1_554
K0 O7 3.107428 1_554
K0 O4 3.107428 1_554
K0 O1 3.107428 1_655
K0 O5 3.107428 1_655
K0 O3 3.107428 1_565
K1 O0 3.107428 1_555
K1 O2 3.107428 1_544
K1 O7 3.107428 1_454
K1 O5 3.107428 1_544
K1 O6 3.107428 1_555
K1 O4 3.107428 1_555
K1 O1 3.107428 1_555
K1 O3 3.107428 1_454
K2 O7 2.715518 1_554
K2 O2 2.715518 1_544
K2 O6 3.091130 1_655
K2 O5 3.091130 1_655
K2 O3 3.091130 1_555
K2 O4 3.091130 1_555
K3 O3 2.715518 1_455
K3 O6 2.715518 1_555
K3 O1 3.091130 1_545
K3 O7 3.091130 1_555
K3 O2 3.091130 1_545
K3 O0 3.091130 1_555
K4 O5 2.715518 1_655
K4 O4 2.715518 1_555
K4 O1 3.091130 1_555
K4 O7 3.091130 1_565
K4 O0 3.091130 1_565
K4 O2 3.091130 1_555
K5 O1 2.715518 1_556
K5 O0 2.715518 1_566
K5 O5 3.091130 1_555
K5 O4 3.091130 1_455
K5 O6 3.091130 1_555
K5 O3 3.091130 1_455
O0 Se1 1.675822 1_555
O1 Se0 1.675822 1_555
O2 Se0 1.675822 1_555
O3 Se1 1.675822 1_555
O4 Se1 1.675822 1_555
O5 Se0 1.675822 1_555
O6 Se0 1.675822 1_555
O7 Se1 1.675822 1_555
F0 K2 2.717230 1_555
F0 K4 2.717230 1_555
F0 K3 2.717230 1_554
F0 K5 2.717230 1_554
F0 K1 2.911964 1_555
F0 K0 2.911964 1_555
F1 K5 2.717230 1_544
F1 K2 2.717230 1_455
F1 K4 2.717230 1_444
F1 K3 2.717230 1_555
F1 K1 2.911964 1_555
F1 K0 2.911964 1_445
