# generated using pymatgen
data_LaReN3
_symmetry_space_group_name_H-M   'P 1'
_cell_length_a   5.37465400
_cell_length_b   7.06315100
_cell_length_c   11.27883928
_cell_angle_alpha   59.18720810
_cell_angle_beta   90.00000000
_cell_angle_gamma   90.00000000
_symmetry_Int_Tables_number   1
_chemical_formula_structural   LaReN3
_chemical_formula_sum   'La4 Re4 N12'
_cell_volume   367.72951033
_cell_formula_units_Z   4
loop_
 _symmetry_equiv_pos_site_id
 _symmetry_equiv_pos_as_xyz
  1  'x, y, z'
loop_
 _atom_site_type_symbol
 _atom_site_label
 _atom_site_symmetry_multiplicity
 _atom_site_fract_x
 _atom_site_fract_y
 _atom_site_fract_z
 _atom_site_occupancy
  La  La0  1  0.70840500  0.77853100  0.83329000  1
  La  La1  1  0.29159500  0.22146900  0.16671000  1
  La  La2  1  0.79159500  0.77853100  0.33329000  1
  La  La3  1  0.20840500  0.22146900  0.66671000  1
  Re  Re0  1  0.72021900  0.09523900  0.99190500  1
  Re  Re1  1  0.77978100  0.09523900  0.49190500  1
  Re  Re2  1  0.22021900  0.90476100  0.50809500  1
  Re  Re3  1  0.27978100  0.90476100  0.00809500  1
  N  N0  1  0.30623300  0.63731800  0.03469700  1
  N  N1  1  0.52048600  0.03223300  0.38177600  1
  N  N2  1  0.80623300  0.36268200  0.46530300  1
  N  N3  1  0.50200400  0.08798900  0.84855000  1
  N  N4  1  0.19376700  0.63731800  0.53469700  1
  N  N5  1  0.49799600  0.91201100  0.15145000  1
  N  N6  1  0.00200400  0.91201100  0.65145000  1
  N  N7  1  0.47951400  0.96776700  0.61822400  1
  N  N8  1  0.99799600  0.08798900  0.34855000  1
  N  N9  1  0.69376700  0.36268200  0.96530300  1
  N  N10  1  0.97951400  0.03223300  0.88177600  1
  N  N11  1  0.02048600  0.96776700  0.11822400  1
loop_
_geom_bond_atom_site_label_1
_geom_bond_atom_site_label_2
_geom_bond_distance
_geom_bond_site_symmetry_2
La0 N6 2.367354 1_655
La0 N7 2.421238 1_555
La0 N9 2.523879 1_555
La0 N3 2.534393 1_565
La0 N10 2.576279 1_565
La0 N0 2.916540 1_556
La1 N8 2.367354 1_455
La1 N1 2.421238 1_555
La1 N0 2.523879 1_555
La1 N5 2.534393 1_545
La1 N11 2.576279 1_545
La1 N9 2.916540 1_554
La2 N5 2.367354 1_555
La2 N11 2.421238 1_655
La2 N2 2.523879 1_555
La2 N8 2.534393 1_565
La2 N1 2.576279 1_565
La2 N4 2.916540 1_655
La3 N3 2.367354 1_555
La3 N10 2.421238 1_455
La3 N4 2.523879 1_555
La3 N6 2.534393 1_545
La3 N7 2.576279 1_545
La3 N2 2.916540 1_455
N0 Re3 1.760080 1_555
N1 Re2 2.032436 1_545
N1 Re1 2.061408 1_555
N1 N7 2.474659 1_545
N1 N8 2.594418 1_555
N2 Re1 1.760080 1_555
N3 Re3 1.988395 1_546
N3 Re0 2.019225 1_555
N4 Re2 1.760080 1_555
N5 Re0 1.988395 1_564
N5 Re3 2.019225 1_555
N6 Re1 1.988395 1_465
N6 Re2 2.019225 1_555
N6 N7 2.594418 1_555
N7 Re1 2.032436 1_565
N7 Re2 2.061408 1_555
N8 Re2 1.988395 1_645
N8 Re1 2.019225 1_555
N9 Re0 1.760080 1_555
N10 Re3 2.032436 1_646
N10 Re0 2.061408 1_555
N10 N11 2.474659 1_646
N10 N3 2.594418 1_555
N11 Re0 2.032436 1_464
N11 Re3 2.061408 1_555
N11 N5 2.594418 1_555
