# generated using pymatgen
data_Lu2TlHg
_symmetry_space_group_name_H-M   'P 1'
_cell_length_a   5.17069010
_cell_length_b   5.17069010
_cell_length_c   5.17069010
_cell_angle_alpha   60.01018174
_cell_angle_beta   60.01018174
_cell_angle_gamma   60.01018174
_symmetry_Int_Tables_number   1
_chemical_formula_structural   Lu2TlHg
_chemical_formula_sum   'Lu2 Tl1 Hg1'
_cell_volume   97.77566249
_cell_formula_units_Z   1
loop_
 _symmetry_equiv_pos_site_id
 _symmetry_equiv_pos_as_xyz
  1  'x, y, z'
loop_
 _atom_site_type_symbol
 _atom_site_label
 _atom_site_symmetry_multiplicity
 _atom_site_fract_x
 _atom_site_fract_y
 _atom_site_fract_z
 _atom_site_occupancy
  Lu  Lu0  1  0.99995478  0.99995478  0.99995478  1
  Lu  Lu1  1  0.50004322  0.50004322  0.50004322  1
  Tl  Tl0  1  0.74999900  0.74999900  0.74999900  1
  Hg  Hg0  1  0.25000200  0.25000200  0.25000200  1
loop_
_geom_bond_atom_site_label_1
_geom_bond_atom_site_label_2
_geom_bond_distance
_geom_bond_site_symmetry_2
Lu0 Tl0 3.165584 1_555
Lu0 Tl0 3.166981 1_556
Lu0 Tl0 3.166981 1_565
Lu0 Tl0 3.166981 1_655
Lu0 Lu1 3.655865 1_655
Lu0 Lu1 3.655865 1_556
Lu0 Lu1 3.655865 1_565
Lu0 Lu1 3.657158 1_566
Lu0 Lu1 3.657158 1_656
Lu0 Lu1 3.657158 1_665
Lu1 Tl0 3.165584 1_555
Lu1 Tl0 3.166981 1_545
Lu1 Tl0 3.166981 1_554
Lu1 Tl0 3.166981 1_455
Hg0 Lu0 3.166595 1_544
Hg0 Lu0 3.166595 1_445
Hg0 Lu0 3.166595 1_454
Hg0 Lu1 3.166620 1_545
Hg0 Lu1 3.166620 1_455
Hg0 Lu1 3.166620 1_554
Hg0 Lu1 3.166666 1_555
Hg0 Lu0 3.166742 1_444
Hg0 Tl0 3.656489 1_554
Hg0 Tl0 3.656489 1_455
Hg0 Tl0 3.656489 1_545
Hg0 Tl0 3.656533 1_544
Hg0 Tl0 3.656533 1_454
Hg0 Tl0 3.656533 1_445
