# generated using pymatgen
data_Pr6Fe13Si
_symmetry_space_group_name_H-M   'P 1'
_cell_length_a   12.92209999
_cell_length_b   12.92209999
_cell_length_c   12.92209999
_cell_angle_alpha   143.74130191
_cell_angle_beta   143.74130191
_cell_angle_gamma   52.21431231
_symmetry_Int_Tables_number   1
_chemical_formula_structural   Pr6Fe13Si
_chemical_formula_sum   'Pr12 Fe26 Si2'
_cell_volume   750.41076627
_cell_formula_units_Z   2
loop_
 _symmetry_equiv_pos_site_id
 _symmetry_equiv_pos_as_xyz
  1  'x, y, z'
loop_
 _atom_site_type_symbol
 _atom_site_label
 _atom_site_symmetry_multiplicity
 _atom_site_fract_x
 _atom_site_fract_y
 _atom_site_fract_z
 _atom_site_occupancy
  Pr  Pr0  1  0.02243100  0.85548200  0.50000000  1
  Pr  Pr1  1  0.97756900  0.14451800  0.50000000  1
  Pr  Pr2  1  0.64451800  0.47756900  0.50000000  1
  Pr  Pr3  1  0.47756900  0.97756900  0.83305100  1
  Pr  Pr4  1  0.14451800  0.64451800  0.16694900  1
  Pr  Pr5  1  0.85548200  0.35548200  0.83305100  1
  Pr  Pr6  1  0.52243100  0.02243100  0.16694900  1
  Pr  Pr7  1  0.35548200  0.52243100  0.50000000  1
  Pr  Pr8  1  0.60883300  0.60883300  0.00000000  1
  Pr  Pr9  1  0.89116700  0.89116700  0.00000000  1
  Pr  Pr10  1  0.39116700  0.39116700  0.00000000  1
  Pr  Pr11  1  0.10883300  0.10883300  0.00000000  1
  Fe  Fe0  1  0.70739100  0.98159600  0.50000000  1
  Fe  Fe1  1  0.29260900  0.01840400  0.50000000  1
  Fe  Fe2  1  0.51840400  0.79260900  0.50000000  1
  Fe  Fe3  1  0.79260900  0.29260900  0.27420500  1
  Fe  Fe4  1  0.01840400  0.51840400  0.72579500  1
  Fe  Fe5  1  0.98159600  0.48159600  0.27420500  1
  Fe  Fe6  1  0.20739100  0.70739100  0.72579500  1
  Fe  Fe7  1  0.48159600  0.20739100  0.50000000  1
  Fe  Fe8  1  0.88054300  0.73798400  0.50000000  1
  Fe  Fe9  1  0.11945700  0.26201600  0.50000000  1
  Fe  Fe10  1  0.00000000  0.50000000  0.50000000  1
  Fe  Fe11  1  0.50000000  0.00000000  0.50000000  1
  Fe  Fe12  1  0.06617900  0.79107200  0.85725100  1
  Fe  Fe13  1  0.79107200  0.93382100  0.72489400  1
  Fe  Fe14  1  0.20892800  0.06617900  0.27510600  1
  Fe  Fe15  1  0.43382100  0.29107200  0.72489400  1
  Fe  Fe16  1  0.56617900  0.70892800  0.27510600  1
  Fe  Fe17  1  0.29107200  0.56617900  0.85725100  1
  Fe  Fe18  1  0.70892800  0.43382100  0.14274900  1
  Fe  Fe19  1  0.93382100  0.20892800  0.14274900  1
  Fe  Fe20  1  0.23798400  0.38054300  0.50000000  1
  Fe  Fe21  1  0.38054300  0.88054300  0.14255900  1
  Fe  Fe22  1  0.73798400  0.23798400  0.85744100  1
  Fe  Fe23  1  0.26201600  0.76201600  0.14255900  1
  Fe  Fe24  1  0.61945700  0.11945700  0.85744100  1
  Fe  Fe25  1  0.76201600  0.61945700  0.50000000  1
  Si  Si0  1  0.75000000  0.75000000  0.00000000  1
  Si  Si1  1  0.25000000  0.25000000  0.00000000  1
loop_
_geom_bond_atom_site_label_1
_geom_bond_atom_site_label_2
_geom_bond_distance
_geom_bond_site_symmetry_2
Pr0 Si0 3.315406 1_455
Pr0 Si1 3.315406 1_566
Pr0 Pr1 3.410669 1_465
Pr0 Pr8 3.527403 1_455
Pr0 Pr11 3.527403 1_566
Pr0 Pr7 3.787714 1_555
Pr0 Pr4 3.898858 1_555
Pr0 Pr3 3.898858 1_555
Pr1 Si1 3.315406 1_656
Pr1 Si0 3.315406 1_545
Pr1 Pr9 3.527403 1_545
Pr1 Pr10 3.527403 1_656
Pr1 Pr2 3.787714 1_555
Pr1 Pr6 3.898858 1_555
Pr1 Pr5 3.898858 1_555
Pr2 Si0 3.315406 1_556
Pr2 Si1 3.315406 1_555
Pr2 Pr7 3.410669 1_555
Pr2 Pr9 3.527403 1_556
Pr2 Pr6 3.898858 1_555
Pr2 Pr5 3.898858 1_555
Pr3 Si1 3.315406 1_566
Pr3 Si0 3.315406 1_556
Pr3 Pr6 3.410669 1_566
Pr3 Pr9 3.527403 1_556
Pr3 Pr4 3.787714 1_555
Pr3 Pr7 3.898858 1_555
Pr4 Si0 3.315406 1_455
Pr4 Si1 3.315406 1_555
Pr4 Pr5 3.410669 1_454
Pr4 Pr9 3.527403 1_455
Pr4 Pr7 3.898858 1_555
Pr5 Si1 3.315406 1_656
Pr5 Si0 3.315406 1_556
Pr5 Pr8 3.527403 1_556
Pr5 Pr6 3.787714 1_555
Pr6 Si1 3.315406 1_555
Pr6 Si0 3.315406 1_545
Pr6 Pr8 3.527403 1_545
Pr7 Si1 3.315406 1_555
Pr7 Si0 3.315406 1_556
Pr7 Pr8 3.527403 1_556
Pr8 Si0 3.276117 1_555
Pr9 Si0 3.276117 1_555
Pr10 Si1 3.276117 1_555
Pr10 Pr4 3.527403 1_555
Pr10 Pr2 3.527403 1_555
Pr10 Pr3 3.527403 1_544
Pr11 Si1 3.276117 1_555
Pr11 Pr5 3.527403 1_454
Pr11 Pr7 3.527403 1_555
Pr11 Pr6 3.527403 1_555
Fe0 Fe8 2.506951 1_555
Fe0 Fe22 2.539343 1_565
Fe0 Fe21 2.539343 1_555
Fe0 Fe11 2.541174 1_565
Fe0 Fe7 2.567916 1_565
Fe0 Fe16 2.646347 1_555
Fe0 Fe13 2.646366 1_555
Fe0 Pr5 3.168778 1_565
Fe0 Pr6 3.168778 1_565
Fe0 Pr8 3.259710 1_555
Fe0 Pr11 3.259710 1_666
Fe0 Pr0 3.331493 1_655
Fe1 Fe9 2.506951 1_555
Fe1 Fe23 2.539343 1_545
Fe1 Fe24 2.539343 1_555
Fe1 Fe11 2.541174 1_555
Fe1 Fe2 2.567916 1_545
Fe1 Fe15 2.646347 1_555
Fe1 Fe14 2.646366 1_555
Fe1 Pr4 3.168778 1_545
Fe1 Pr3 3.168778 1_545
Fe1 Pr10 3.259710 1_556
Fe1 Pr9 3.259710 1_445
Fe1 Pr1 3.331493 1_455
Fe2 Fe25 2.506951 1_555
Fe2 Fe23 2.539343 1_555
Fe2 Fe24 2.539343 1_565
Fe2 Pr4 3.168778 1_555
Fe2 Pr3 3.168778 1_555
Fe2 Pr10 3.259710 1_555
Fe2 Pr9 3.259710 1_556
Fe2 Pr2 3.331493 1_555
Fe3 Fe9 2.539343 1_655
Fe3 Fe4 2.567916 1_655
Fe3 Pr2 3.168778 1_555
Fe3 Pr1 3.168778 1_555
Fe3 Pr10 3.259710 1_555
Fe3 Pr9 3.259710 1_545
Fe3 Pr3 3.331493 1_544
Fe4 Fe9 2.539343 1_555
Fe4 Pr2 3.168778 1_455
Fe4 Pr1 3.168778 1_455
Fe4 Pr10 3.259710 1_556
Fe4 Pr9 3.259710 1_456
Fe4 Pr4 3.331493 1_556
Fe5 Fe8 2.539343 1_555
Fe5 Fe6 2.567916 1_655
Fe5 Pr7 3.168778 1_655
Fe5 Pr0 3.168778 1_655
Fe5 Pr11 3.259710 1_655
Fe5 Pr8 3.259710 1_555
Fe5 Pr5 3.331493 1_554
Fe6 Fe8 2.539343 1_455
Fe6 Pr7 3.168778 1_555
Fe6 Pr0 3.168778 1_555
Fe6 Pr11 3.259710 1_566
Fe6 Pr8 3.259710 1_556
Fe6 Pr6 3.331493 1_566
Fe7 Pr5 3.168778 1_555
Fe7 Pr6 3.168778 1_555
Fe7 Pr11 3.259710 1_555
Fe7 Pr8 3.259710 1_556
Fe7 Pr7 3.331493 1_555
Fe8 Pr0 3.013029 1_655
Fe8 Pr8 3.172423 1_555
Fe8 Pr11 3.172423 1_666
Fe9 Pr1 3.013029 1_455
Fe9 Pr10 3.172423 1_556
Fe9 Pr9 3.172423 1_445
Fe10 Fe18 2.400471 1_455
Fe10 Fe12 2.400471 1_555
Fe10 Fe19 2.400471 1_455
Fe10 Fe17 2.400471 1_555
Fe10 Fe20 2.454148 1_555
Fe10 Fe8 2.454148 1_455
Fe10 Fe9 2.454148 1_555
Fe10 Fe25 2.454148 1_455
Fe10 Fe5 2.541174 1_455
Fe10 Fe3 2.541174 1_455
Fe10 Fe4 2.541174 1_555
Fe10 Fe6 2.541174 1_555
Fe11 Fe13 2.400474 1_545
Fe11 Fe15 2.400474 1_555
Fe11 Fe14 2.400474 1_555
Fe11 Fe16 2.400474 1_545
Fe11 Fe21 2.454148 1_545
Fe11 Fe22 2.454148 1_555
Fe11 Fe24 2.454148 1_555
Fe11 Fe23 2.454148 1_545
Fe11 Fe7 2.541174 1_555
Fe11 Fe2 2.541174 1_545
Fe12 Fe21 2.481750 1_556
Fe12 Fe23 2.481750 1_556
Fe12 Fe14 2.492438 1_566
Fe12 Fe13 2.492442 1_455
Fe12 Fe17 2.557657 1_555
Fe12 Fe8 2.566426 1_455
Fe12 Fe25 2.566426 1_455
Fe12 Fe6 2.646354 1_555
Fe12 Fe4 2.646354 1_555
Fe12 Pr11 3.079845 1_566
Fe12 Pr9 3.079845 1_456
Fe13 Fe25 2.481746 1_555
Fe13 Fe8 2.481759 1_555
Fe13 Fe19 2.492438 1_566
Fe13 Fe16 2.557669 1_555
Fe13 Fe24 2.566418 1_565
Fe13 Fe22 2.566431 1_565
Fe13 Fe2 2.646347 1_555
Fe13 Pr9 3.079833 1_556
Fe13 Pr11 3.079852 1_666
Fe14 Fe20 2.481746 1_555
Fe14 Fe9 2.481759 1_555
Fe14 Fe19 2.492442 1_455
Fe14 Fe15 2.557669 1_555
Fe14 Fe21 2.566418 1_545
Fe14 Fe23 2.566431 1_545
Fe14 Fe7 2.646347 1_555
Fe14 Pr11 3.079833 1_555
Fe14 Pr9 3.079852 1_445
Fe15 Fe9 2.481746 1_555
Fe15 Fe20 2.481759 1_555
Fe15 Fe18 2.492438 1_556
Fe15 Fe17 2.492442 1_555
Fe15 Fe24 2.566418 1_555
Fe15 Fe22 2.566431 1_555
Fe15 Fe7 2.646366 1_555
Fe15 Pr10 3.079833 1_556
Fe15 Pr8 3.079852 1_556
Fe16 Fe8 2.481746 1_555
Fe16 Fe25 2.481759 1_555
Fe16 Fe17 2.492438 1_554
Fe16 Fe18 2.492442 1_555
Fe16 Fe21 2.566418 1_555
Fe16 Fe23 2.566431 1_555
Fe16 Fe2 2.646366 1_555
Fe16 Pr8 3.079833 1_555
Fe16 Pr10 3.079852 1_555
Fe17 Fe21 2.481750 1_556
Fe17 Fe23 2.481750 1_556
Fe17 Fe20 2.566426 1_555
Fe17 Fe9 2.566426 1_555
Fe17 Fe6 2.646354 1_555
Fe17 Fe4 2.646354 1_555
Fe17 Pr8 3.079845 1_556
Fe17 Pr10 3.079845 1_556
Fe18 Fe24 2.481750 1_554
Fe18 Fe22 2.481750 1_554
Fe18 Fe19 2.557657 1_555
Fe18 Fe25 2.566426 1_555
Fe18 Fe8 2.566426 1_555
Fe18 Fe3 2.646354 1_555
Fe18 Fe5 2.646354 1_555
Fe18 Pr10 3.079845 1_555
Fe18 Pr8 3.079845 1_555
Fe19 Fe22 2.481750 1_554
Fe19 Fe24 2.481750 1_554
Fe19 Fe20 2.566426 1_655
Fe19 Fe9 2.566426 1_655
Fe19 Fe5 2.646354 1_555
Fe19 Fe3 2.646354 1_555
Fe19 Pr11 3.079845 1_655
Fe19 Pr9 3.079845 1_545
Fe20 Fe7 2.506951 1_555
Fe20 Fe5 2.539343 1_455
Fe20 Fe6 2.539343 1_555
Fe20 Fe9 2.750702 1_555
Fe20 Pr7 3.013029 1_555
Fe20 Pr8 3.172423 1_556
Fe20 Pr11 3.172423 1_555
Fe21 Fe6 2.506951 1_554
Fe21 Fe7 2.539343 1_565
Fe21 Fe23 2.750702 1_555
Fe21 Pr6 3.013029 1_565
Fe21 Pr11 3.172423 1_565
Fe21 Pr8 3.172423 1_555
Fe22 Fe5 2.506951 1_556
Fe22 Fe7 2.539343 1_555
Fe22 Fe24 2.750702 1_555
Fe22 Pr5 3.013029 1_555
Fe22 Pr8 3.172423 1_556
Fe22 Pr11 3.172423 1_656
Fe23 Fe4 2.506951 1_554
Fe23 Pr4 3.013029 1_555
Fe23 Pr10 3.172423 1_555
Fe23 Pr9 3.172423 1_455
Fe24 Fe3 2.506951 1_556
Fe24 Pr3 3.013029 1_545
Fe24 Pr10 3.172423 1_556
Fe24 Pr9 3.172423 1_546
Fe25 Fe3 2.539343 1_555
Fe25 Fe4 2.539343 1_655
Fe25 Fe8 2.750702 1_555
Fe25 Pr2 3.013029 1_555
Fe25 Pr10 3.172423 1_555
Fe25 Pr9 3.172423 1_556
